version 3
run Dynamic-0-20251201-14:56:20-7344
attr configname Dynamic
attr datetime 20251201-14:56:20
attr datetimef 20251201-145620
attr experiment Dynamic
attr inifile omnetpp.ini
attr iterationvars ""
attr iterationvarsd ""
attr iterationvarsf ""
attr measurement ""
attr network RoutingTableVisualizationDynamicShowcase
attr processid 7344
attr repetition 0
attr replication #0
attr resultdir results
attr runnumber 0
attr seedset 0
config image-path ../../inet-4.5.4/images
config network RoutingTableVisualizationDynamicShowcase
config description "Visualizing changing routing tables"
config *.configurator.dumpAddresses true
config *.configurator.dumpTopology true
config *.configurator.dumpLinks true
config *.configurator.dumpRoutes true
config *.visualizer.*.routingTableVisualizer.destinationFilter "\"destinationHost\""
config *.visualizer.*.routingTableVisualizer.displayRoutingTables true
config *.visualizer.*.interfaceTableVisualizer.displayInterfaceTables false
config *.destinationHost.mobility.typename LinearMobility
config *.*.mobility.speed 10mps
config *.destinationHost.mobility.initialMovementHeading 90deg
config *.*.mobility.constraintAreaMinY 0m
config *.*.mobility.constraintAreaMaxY 600m
config *.visualizer.*.mobilityVisualizer.animationSpeed 0.1
config *.sourceHost.numApps 1
config *.sourceHost.app[0].typename PingApp
config *.sourceHost.app[*].destAddr "\"destinationHost\""
config **.displayCommunicationRanges true
config **.transmitter.power 1mW
config *.configurator.addStaticRoutes false
config **.routingTable.netmaskRoutes "\"\""
config *.visualizer.*.interfaceTableVisualizer.displayInterfaceTables true
config *.visualizer.*.interfaceTableVisualizer.interfaceFilter "\"not(lo*)\""
config *.visualizer.*.interfaceTableVisualizer.nodeFilter "\"not(*switch*)\""
config *.visualizer.*.interfaceTableVisualizer.displayWiredInterfacesAtConnections false
config *.visualizer.*.interfaceTableVisualizer.format "\"%N %n\""

par RoutingTableVisualizationDynamicShowcase.host1.radioIn[0].channel typename "\"ned.IdealChannel\""
par RoutingTableVisualizationDynamicShowcase.host1.mobility typename "\"inet.mobility.static.StationaryMobility\""
par RoutingTableVisualizationDynamicShowcase.host1.mobility subjectModule "\"^\""
par RoutingTableVisualizationDynamicShowcase.host1.mobility coordinateSystemModule "\"\""
par RoutingTableVisualizationDynamicShowcase.host1.mobility displayStringTextFormat "\"p: %p\\nv: %v\""
attr mutable ""
par RoutingTableVisualizationDynamicShowcase.host1.mobility updateDisplayString true
par RoutingTableVisualizationDynamicShowcase.host1.mobility constraintAreaMinX "-inf m"
attr unit m
par RoutingTableVisualizationDynamicShowcase.host1.mobility constraintAreaMinY 0m
attr unit m
par RoutingTableVisualizationDynamicShowcase.host1.mobility constraintAreaMinZ "-inf m"
attr unit m
par RoutingTableVisualizationDynamicShowcase.host1.mobility constraintAreaMaxX "inf m"
attr unit m
par RoutingTableVisualizationDynamicShowcase.host1.mobility constraintAreaMaxY 600m
attr unit m
par RoutingTableVisualizationDynamicShowcase.host1.mobility constraintAreaMaxZ "inf m"
attr unit m
par RoutingTableVisualizationDynamicShowcase.host1.mobility initialX "nan m"
attr unit m
par RoutingTableVisualizationDynamicShowcase.host1.mobility initialY 355.707m
attr unit m
par RoutingTableVisualizationDynamicShowcase.host1.mobility initialZ 0m
attr unit m
par RoutingTableVisualizationDynamicShowcase.host1.mobility initialLatitude "nan deg"
attr unit deg
par RoutingTableVisualizationDynamicShowcase.host1.mobility initialLongitude "nan deg"
attr unit deg
par RoutingTableVisualizationDynamicShowcase.host1.mobility initialAltitude 0m
attr unit m
par RoutingTableVisualizationDynamicShowcase.host1.mobility initialHeading 0deg
attr unit deg
par RoutingTableVisualizationDynamicShowcase.host1.mobility initialElevation 0deg
attr unit deg
par RoutingTableVisualizationDynamicShowcase.host1.mobility initialBank 0deg
attr unit deg
par RoutingTableVisualizationDynamicShowcase.host1.mobility initFromDisplayString true
par RoutingTableVisualizationDynamicShowcase.host1.mobility updateFromDisplayString true
par RoutingTableVisualizationDynamicShowcase.host1.interfaceTable typename "\"inet.networklayer.common.InterfaceTable\""
par RoutingTableVisualizationDynamicShowcase.host1.interfaceTable displayAddresses false
par RoutingTableVisualizationDynamicShowcase.host1.cb typename "\"inet.common.MessageDispatcher\""
par RoutingTableVisualizationDynamicShowcase.host1.cb displayStringTextFormat "\"processed %p pk (%l)\""
par RoutingTableVisualizationDynamicShowcase.host1.cb forwardServiceRegistration true
par RoutingTableVisualizationDynamicShowcase.host1.cb forwardProtocolRegistration true
par RoutingTableVisualizationDynamicShowcase.host1.bl typename "\"inet.common.MessageDispatcher\""
par RoutingTableVisualizationDynamicShowcase.host1.bl displayStringTextFormat "\"processed %p pk (%l)\""
par RoutingTableVisualizationDynamicShowcase.host1.bl forwardServiceRegistration true
par RoutingTableVisualizationDynamicShowcase.host1.bl forwardProtocolRegistration true
par RoutingTableVisualizationDynamicShowcase.host1.li typename "\"inet.common.MessageDispatcher\""
par RoutingTableVisualizationDynamicShowcase.host1.li displayStringTextFormat "\"processed %p pk (%l)\""
par RoutingTableVisualizationDynamicShowcase.host1.li forwardServiceRegistration true
par RoutingTableVisualizationDynamicShowcase.host1.li forwardProtocolRegistration true
par RoutingTableVisualizationDynamicShowcase.host1.lo[0].upperLayerIn.channel typename "\"ned.IdealChannel\""
par RoutingTableVisualizationDynamicShowcase.host1.lo[0].lo.upperLayerOut.channel typename "\"ned.IdealChannel\""
par RoutingTableVisualizationDynamicShowcase.host1.lo[0].lo typename "\"inet.linklayer.loopback.Loopback\""
par RoutingTableVisualizationDynamicShowcase.host1.lo[0].lo interfaceTableModule "\"RoutingTableVisualizationDynamicShowcase.host1.interfaceTable\""
par RoutingTableVisualizationDynamicShowcase.host1.lo[0].lo mtu 4470B
attr unit B
scalar RoutingTableVisualizationDynamicShowcase.host1.lo[0].lo rcvdPkFromHl:count 0
attr interpolationmode none
attr recordingmode count
attr source packetReceivedFromUpper
attr title "packets received from higher layer, count"
scalar RoutingTableVisualizationDynamicShowcase.host1.lo[0].lo rcvdPkFromHl:sum(packetBytes) 0
attr interpolationmode none
attr recordingmode sum(packetBytes)
attr source packetReceivedFromUpper
attr title "packets received from higher layer, sum(packetBytes)"
scalar RoutingTableVisualizationDynamicShowcase.host1.lo[0].lo passedUpPk:count 0
attr interpolationmode none
attr recordingmode count
attr source packetSentToUpper
attr title "packets passed to higher layer, count"
scalar RoutingTableVisualizationDynamicShowcase.host1.lo[0].lo passedUpPk:sum(packetBytes) 0
attr interpolationmode none
attr recordingmode sum(packetBytes)
attr source packetSentToUpper
attr title "packets passed to higher layer, sum(packetBytes)"
par RoutingTableVisualizationDynamicShowcase.host1.lo[0] typename "\"inet.linklayer.loopback.LoopbackInterface\""
par RoutingTableVisualizationDynamicShowcase.host1.lo[0] displayStringTextFormat "\"%a (%i)\\n%m\""
par RoutingTableVisualizationDynamicShowcase.host1.lo[0] recordPcap false
par RoutingTableVisualizationDynamicShowcase.host1.lo[0] numPcapRecorders 0
par RoutingTableVisualizationDynamicShowcase.host1.lo[0] interfaceTableModule "\"RoutingTableVisualizationDynamicShowcase.host1.interfaceTable\""
scalar RoutingTableVisualizationDynamicShowcase.host1.lo[0] packetDropInterfaceDown:count 0
attr interpolationmode none
attr recordingmode count
attr source packetDropReasonIsInterfaceDown(packetDropped)
attr title "packet drops: interface down, count"
scalar RoutingTableVisualizationDynamicShowcase.host1.lo[0] packetDropInterfaceDown:sum(packetBytes) 0
attr interpolationmode none
attr recordingmode sum(packetBytes)
attr source packetDropReasonIsInterfaceDown(packetDropped)
attr title "packet drops: interface down, sum(packetBytes)"
scalar RoutingTableVisualizationDynamicShowcase.host1.lo[0] packetDropNoCarrier:count 0
attr interpolationmode none
attr recordingmode count
attr source packetDropReasonIsNoCarrier(packetDropped)
attr title "packet drops: no carrier, count"
scalar RoutingTableVisualizationDynamicShowcase.host1.lo[0] packetDropNoCarrier:sum(packetBytes) 0
attr interpolationmode none
attr recordingmode sum(packetBytes)
attr source packetDropReasonIsNoCarrier(packetDropped)
attr title "packet drops: no carrier, sum(packetBytes)"
par RoutingTableVisualizationDynamicShowcase.host1.wlan[0].radioIn.channel typename "\"ned.IdealChannel\""
par RoutingTableVisualizationDynamicShowcase.host1.wlan[0].llc.upperLayerOut.channel typename "\"ned.IdealChannel\""
par RoutingTableVisualizationDynamicShowcase.host1.wlan[0].upperLayerIn.channel typename "\"ned.IdealChannel\""
par RoutingTableVisualizationDynamicShowcase.host1.wlan[0].mib typename "\"inet.linklayer.ieee80211.mib.Ieee80211Mib\""
par RoutingTableVisualizationDynamicShowcase.host1.wlan[0].llc typename "\"inet.linklayer.ieee80211.llc.Ieee80211LlcLpd\""
par RoutingTableVisualizationDynamicShowcase.host1.wlan[0].llc registerProtocol false
par RoutingTableVisualizationDynamicShowcase.host1.wlan[0].mgmt typename "\"inet.linklayer.ieee80211.mgmt.Ieee80211MgmtAdhoc\""
par RoutingTableVisualizationDynamicShowcase.host1.wlan[0].mgmt mibModule "\"RoutingTableVisualizationDynamicShowcase.host1.wlan[0].mib\""
par RoutingTableVisualizationDynamicShowcase.host1.wlan[0].mgmt macModule "\"RoutingTableVisualizationDynamicShowcase.host1.wlan[0].mac\""
par RoutingTableVisualizationDynamicShowcase.host1.wlan[0].mgmt interfaceTableModule "\"RoutingTableVisualizationDynamicShowcase.host1.interfaceTable\""
par RoutingTableVisualizationDynamicShowcase.host1.wlan[0].mac.dcf.channelAccess.pendingQueue typename "\"inet.linklayer.ieee80211.mac.queue.PendingQueue\""
par RoutingTableVisualizationDynamicShowcase.host1.wlan[0].mac.dcf.channelAccess.pendingQueue displayStringTextFormat "\"contains %p pk (%l) pushed %u\\npulled %o removed %r dropped %d\""
par RoutingTableVisualizationDynamicShowcase.host1.wlan[0].mac.dcf.channelAccess.pendingQueue packetCapacity 100
par RoutingTableVisualizationDynamicShowcase.host1.wlan[0].mac.dcf.channelAccess.pendingQueue dataCapacity -1b
attr unit b
par RoutingTableVisualizationDynamicShowcase.host1.wlan[0].mac.dcf.channelAccess.pendingQueue dropperClass "\"inet::queueing::PacketAtCollectionEndDropper\""
par RoutingTableVisualizationDynamicShowcase.host1.wlan[0].mac.dcf.channelAccess.pendingQueue comparatorClass "\"inet::ieee80211::MgmtOverDataComparator\""
par RoutingTableVisualizationDynamicShowcase.host1.wlan[0].mac.dcf.channelAccess.pendingQueue bufferModule "\"\""
scalar RoutingTableVisualizationDynamicShowcase.host1.wlan[0].mac.dcf.channelAccess.pendingQueue queueLength:last 0
attr autoWarmupFilter false
attr interpolationmode sample-hold
attr recordingmode last
attr source "warmup(atomic(constant0(packetPushEnded) + count(packetPushStarted) - count(packetPulled) - count(packetRemoved) - count(packetDropped)))"
attr title "queue length, last"
attr unit pk
scalar RoutingTableVisualizationDynamicShowcase.host1.wlan[0].mac.dcf.channelAccess.pendingQueue queueLength:max 0
attr autoWarmupFilter false
attr interpolationmode sample-hold
attr recordingmode max
attr source "warmup(atomic(constant0(packetPushEnded) + count(packetPushStarted) - count(packetPulled) - count(packetRemoved) - count(packetDropped)))"
attr title "queue length, max"
attr unit pk
scalar RoutingTableVisualizationDynamicShowcase.host1.wlan[0].mac.dcf.channelAccess.pendingQueue queueLength:timeavg 0
attr autoWarmupFilter false
attr interpolationmode sample-hold
attr recordingmode timeavg
attr source "warmup(atomic(constant0(packetPushEnded) + count(packetPushStarted) - count(packetPulled) - count(packetRemoved) - count(packetDropped)))"
attr title "queue length, timeavg"
attr unit pk
scalar RoutingTableVisualizationDynamicShowcase.host1.wlan[0].mac.dcf.channelAccess.pendingQueue queueBitLength:last 0
attr autoWarmupFilter false
attr interpolationmode sample-hold
attr recordingmode last
attr source "warmup(atomic(constant0(packetPushEnded) + sum(packetLength(packetPushStarted)) - sum(packetLength(packetPulled)) - sum(packetLength(packetRemoved)) - sum(packetLength(packetDropped))))"
attr title "queue bit length, last"
attr unit b
scalar RoutingTableVisualizationDynamicShowcase.host1.wlan[0].mac.dcf.channelAccess.pendingQueue queueBitLength:max 0
attr autoWarmupFilter false
attr interpolationmode sample-hold
attr recordingmode max
attr source "warmup(atomic(constant0(packetPushEnded) + sum(packetLength(packetPushStarted)) - sum(packetLength(packetPulled)) - sum(packetLength(packetRemoved)) - sum(packetLength(packetDropped))))"
attr title "queue bit length, max"
attr unit b
scalar RoutingTableVisualizationDynamicShowcase.host1.wlan[0].mac.dcf.channelAccess.pendingQueue queueBitLength:timeavg 0
attr autoWarmupFilter false
attr interpolationmode sample-hold
attr recordingmode timeavg
attr source "warmup(atomic(constant0(packetPushEnded) + sum(packetLength(packetPushStarted)) - sum(packetLength(packetPulled)) - sum(packetLength(packetRemoved)) - sum(packetLength(packetDropped))))"
attr title "queue bit length, timeavg"
attr unit b
statistic RoutingTableVisualizationDynamicShowcase.host1.wlan[0].mac.dcf.channelAccess.pendingQueue queueingTime:histogram
field count 0
field mean nan
field stddev nan
field min nan
field max nan
field sum 0
field sqrsum 0
attr interpolationmode none
attr recordingmode histogram
attr source queueingTime(packetPulled)
attr title "queueing times"
attr unit s
bin	-inf	0
bin	0	0
bin	1	0
scalar RoutingTableVisualizationDynamicShowcase.host1.wlan[0].mac.dcf.channelAccess.pendingQueue outgoingPackets:count 0
attr recordingmode count
attr source packetPulled
attr title "outgoing packets, count"
attr unit pk
scalar RoutingTableVisualizationDynamicShowcase.host1.wlan[0].mac.dcf.channelAccess.pendingQueue outgoingPacketLengths:sum 0
attr interpolationmode none
attr recordingmode sum
attr source packetLength(packetPulled)
attr title "outgoing packet lengths, sum"
attr unit b
statistic RoutingTableVisualizationDynamicShowcase.host1.wlan[0].mac.dcf.channelAccess.pendingQueue outgoingPacketLengths:histogram
field count 0
field mean nan
field stddev nan
field min nan
field max nan
field sum 0
field sqrsum 0
attr interpolationmode none
attr recordingmode histogram
attr source packetLength(packetPulled)
attr title "outgoing packet lengths"
attr unit b
bin	-inf	0
bin	0	0
bin	1	0
statistic RoutingTableVisualizationDynamicShowcase.host1.wlan[0].mac.dcf.channelAccess.pendingQueue flowQueueingTime:histogram
field count 0
field mean nan
field stddev nan
field min nan
field max nan
field sum 0
field sqrsum 0
attr interpolationmode none
attr recordingmode histogram
attr source queueingTime(demuxFlow(packetPulled))
attr title "flow queueing times"
attr unit s
bin	-inf	0
bin	0	0
bin	1	0
scalar RoutingTableVisualizationDynamicShowcase.host1.wlan[0].mac.dcf.channelAccess.pendingQueue incomingPackets:count 0
attr recordingmode count
attr source packetPushStarted
attr title "incoming packets, count"
attr unit pk
scalar RoutingTableVisualizationDynamicShowcase.host1.wlan[0].mac.dcf.channelAccess.pendingQueue incomingPacketLengths:sum 0
attr interpolationmode none
attr recordingmode sum
attr source packetLength(packetPushStarted)
attr title "incoming packet lengths, sum"
attr unit b
statistic RoutingTableVisualizationDynamicShowcase.host1.wlan[0].mac.dcf.channelAccess.pendingQueue incomingPacketLengths:histogram
field count 0
field mean nan
field stddev nan
field min nan
field max nan
field sum 0
field sqrsum 0
attr interpolationmode none
attr recordingmode histogram
attr source packetLength(packetPushStarted)
attr title "incoming packet lengths"
attr unit b
bin	-inf	0
bin	0	0
bin	1	0
scalar RoutingTableVisualizationDynamicShowcase.host1.wlan[0].mac.dcf.channelAccess.pendingQueue droppedPacketsQueueOverflow:count 0
attr interpolationmode none
attr recordingmode count
attr source packetDropReasonIsQueueOverflow(packetDropped)
attr title "dropped packets: queue overflow, count"
attr unit pk
scalar RoutingTableVisualizationDynamicShowcase.host1.wlan[0].mac.dcf.channelAccess.pendingQueue droppedPacketLengthsQueueOverflow:sum 0
attr interpolationmode none
attr recordingmode sum
attr source packetLength(packetDropReasonIsQueueOverflow(packetDropped))
attr title "dropped packet lengths: queue overflow, sum"
attr unit b
par RoutingTableVisualizationDynamicShowcase.host1.wlan[0].mac.dcf.channelAccess.inProgressFrames typename "\"inet.linklayer.ieee80211.mac.queue.InProgressFrames\""
par RoutingTableVisualizationDynamicShowcase.host1.wlan[0].mac.dcf.channelAccess.inProgressFrames pendingQueueModule "\"^.pendingQueue\""
par RoutingTableVisualizationDynamicShowcase.host1.wlan[0].mac.dcf.channelAccess.inProgressFrames originatorMacDataServiceModule "\"^.^.originatorMacDataService\""
par RoutingTableVisualizationDynamicShowcase.host1.wlan[0].mac.dcf.channelAccess.inProgressFrames ackHandlerModule "\"^.^.ackHandler\""
statistic RoutingTableVisualizationDynamicShowcase.host1.wlan[0].mac.dcf.channelAccess.inProgressFrames queueingTime:histogram
field count 0
field mean nan
field stddev nan
field min nan
field max nan
field sum 0
field sqrsum 0
attr interpolationmode none
attr recordingmode histogram
attr source queueingTime(packetDequeued)
attr title "queueing times"
bin	-inf	0
bin	0	0
bin	1	0
scalar RoutingTableVisualizationDynamicShowcase.host1.wlan[0].mac.dcf.channelAccess.inProgressFrames queueLength:max 0
attr autoWarmupFilter false
attr interpolationmode sample-hold
attr recordingmode max
attr source "warmup(count(packetEnqueued) - count(packetDequeued))"
attr title "queue length, max"
scalar RoutingTableVisualizationDynamicShowcase.host1.wlan[0].mac.dcf.channelAccess.inProgressFrames queueLength:timeavg 0
attr autoWarmupFilter false
attr interpolationmode sample-hold
attr recordingmode timeavg
attr source "warmup(count(packetEnqueued) - count(packetDequeued))"
attr title "queue length, timeavg"
par RoutingTableVisualizationDynamicShowcase.host1.wlan[0].mac.dcf.channelAccess.contention typename "\"inet.linklayer.ieee80211.mac.contention.Contention\""
par RoutingTableVisualizationDynamicShowcase.host1.wlan[0].mac.dcf.channelAccess.contention initialChannelBusy true
par RoutingTableVisualizationDynamicShowcase.host1.wlan[0].mac.dcf.channelAccess.contention backoffOptimization true
scalar RoutingTableVisualizationDynamicShowcase.host1.wlan[0].mac.dcf.channelAccess.contention channelAccessGranted:count 0
attr recordingmode count
attr title "channel access granted, count"
scalar RoutingTableVisualizationDynamicShowcase.host1.wlan[0].mac.dcf.channelAccess.contention stateChanged:count 2
attr enum IDLE,DEFER,IFS_AND_BACKOFF
attr interpolationmode none
attr recordingmode count
attr title "contention state changed, count"
attr type enum
par RoutingTableVisualizationDynamicShowcase.host1.wlan[0].mac.dcf.channelAccess typename "\"inet.linklayer.ieee80211.mac.channelaccess.Dcaf\""
par RoutingTableVisualizationDynamicShowcase.host1.wlan[0].mac.dcf.channelAccess difsn -1
par RoutingTableVisualizationDynamicShowcase.host1.wlan[0].mac.dcf.channelAccess cwMin -1
par RoutingTableVisualizationDynamicShowcase.host1.wlan[0].mac.dcf.channelAccess cwMax -1
par RoutingTableVisualizationDynamicShowcase.host1.wlan[0].mac.dcf.channelAccess rxModule "\"^.^.rx\""
scalar RoutingTableVisualizationDynamicShowcase.host1.wlan[0].mac.dcf.channelAccess channelOwnershipChanged:count 0
attr interpolationmode sample-hold
attr recordingmode count
attr title "channel ownership, count"
par RoutingTableVisualizationDynamicShowcase.host1.wlan[0].mac.dcf.originatorMacDataService.fragmentationPolicy typename "\"inet.linklayer.ieee80211.mac.fragmentation.BasicFragmentationPolicy\""
par RoutingTableVisualizationDynamicShowcase.host1.wlan[0].mac.dcf.originatorMacDataService.fragmentationPolicy fragmentationThreshold 1500B
attr unit B
par RoutingTableVisualizationDynamicShowcase.host1.wlan[0].mac.dcf.originatorMacDataService typename "\"inet.linklayer.ieee80211.mac.originator.OriginatorMacDataService\""
scalar RoutingTableVisualizationDynamicShowcase.host1.wlan[0].mac.dcf.originatorMacDataService packetAggregated:count 0
attr recordingmode count
attr title "packets aggregated, count"
scalar RoutingTableVisualizationDynamicShowcase.host1.wlan[0].mac.dcf.originatorMacDataService packetFragmented:count 0
attr recordingmode count
attr title "packets fragmented, count"
par RoutingTableVisualizationDynamicShowcase.host1.wlan[0].mac.dcf.recipientMacDataService typename "\"inet.linklayer.ieee80211.mac.recipient.RecipientMacDataService\""
scalar RoutingTableVisualizationDynamicShowcase.host1.wlan[0].mac.dcf.recipientMacDataService packetDeaggregated:count 0
attr recordingmode count
attr title "packets deaggregated, count"
scalar RoutingTableVisualizationDynamicShowcase.host1.wlan[0].mac.dcf.recipientMacDataService packetDefragmented:count 0
attr recordingmode count
attr title "packets defragmented, count"
scalar RoutingTableVisualizationDynamicShowcase.host1.wlan[0].mac.dcf.recipientMacDataService packetDropDuplicateDetected:count 0
attr interpolationmode none
attr recordingmode count
attr source packetDropReasonIsDuplicateDetected(packetDropped)
attr title "packet drops: duplicate detected, count"
scalar RoutingTableVisualizationDynamicShowcase.host1.wlan[0].mac.dcf.recipientMacDataService packetDropDuplicateDetected:sum(packetBytes) 0
attr interpolationmode none
attr recordingmode sum(packetBytes)
attr source packetDropReasonIsDuplicateDetected(packetDropped)
attr title "packet drops: duplicate detected, sum(packetBytes)"
par RoutingTableVisualizationDynamicShowcase.host1.wlan[0].mac.dcf.rateSelection typename "\"inet.linklayer.ieee80211.mac.rateselection.RateSelection\""
par RoutingTableVisualizationDynamicShowcase.host1.wlan[0].mac.dcf.rateSelection rateControlModule "\"^.rateControl\""
par RoutingTableVisualizationDynamicShowcase.host1.wlan[0].mac.dcf.rateSelection multicastFrameBitrate -1bps
attr unit bps
par RoutingTableVisualizationDynamicShowcase.host1.wlan[0].mac.dcf.rateSelection responseAckFrameBitrate -1bps
attr unit bps
par RoutingTableVisualizationDynamicShowcase.host1.wlan[0].mac.dcf.rateSelection responseCtsFrameBitrate -1bps
attr unit bps
par RoutingTableVisualizationDynamicShowcase.host1.wlan[0].mac.dcf.rateSelection dataFrameBitrate -1bps
attr unit bps
par RoutingTableVisualizationDynamicShowcase.host1.wlan[0].mac.dcf.rateSelection dataFrameBandwidth "nan Hz"
attr unit Hz
par RoutingTableVisualizationDynamicShowcase.host1.wlan[0].mac.dcf.rateSelection dataFrameNumSpatialStreams -1
par RoutingTableVisualizationDynamicShowcase.host1.wlan[0].mac.dcf.rateSelection mgmtFrameBitrate -1bps
attr unit bps
par RoutingTableVisualizationDynamicShowcase.host1.wlan[0].mac.dcf.rateSelection controlFrameBitrate -1bps
attr unit bps
par RoutingTableVisualizationDynamicShowcase.host1.wlan[0].mac.dcf.recoveryProcedure typename "\"inet.linklayer.ieee80211.mac.originator.NonQosRecoveryProcedure\""
par RoutingTableVisualizationDynamicShowcase.host1.wlan[0].mac.dcf.recoveryProcedure cwCalculatorModule "\"^.channelAccess\""
par RoutingTableVisualizationDynamicShowcase.host1.wlan[0].mac.dcf.recoveryProcedure rtsPolicyModule "\"^.rtsPolicy\""
par RoutingTableVisualizationDynamicShowcase.host1.wlan[0].mac.dcf.recoveryProcedure shortRetryLimit 7
par RoutingTableVisualizationDynamicShowcase.host1.wlan[0].mac.dcf.recoveryProcedure longRetryLimit 4
scalar RoutingTableVisualizationDynamicShowcase.host1.wlan[0].mac.dcf.recoveryProcedure retryLimitReached:count 0
attr recordingmode count
attr title "retry limit reached, count"
par RoutingTableVisualizationDynamicShowcase.host1.wlan[0].mac.dcf.originatorProtectionMechanism typename "\"inet.linklayer.ieee80211.mac.protectionmechanism.OriginatorProtectionMechanism\""
par RoutingTableVisualizationDynamicShowcase.host1.wlan[0].mac.dcf.originatorProtectionMechanism rateSelectionModule "\"^.rateSelection\""
par RoutingTableVisualizationDynamicShowcase.host1.wlan[0].mac.dcf.ackHandler typename "\"inet.linklayer.ieee80211.mac.originator.AckHandler\""
par RoutingTableVisualizationDynamicShowcase.host1.wlan[0].mac.dcf.originatorAckPolicy typename "\"inet.linklayer.ieee80211.mac.originator.OriginatorAckPolicy\""
par RoutingTableVisualizationDynamicShowcase.host1.wlan[0].mac.dcf.originatorAckPolicy rateSelectionModule "\"^.rateSelection\""
par RoutingTableVisualizationDynamicShowcase.host1.wlan[0].mac.dcf.originatorAckPolicy ackTimeout -1s
attr unit s
par RoutingTableVisualizationDynamicShowcase.host1.wlan[0].mac.dcf.recipientAckPolicy typename "\"inet.linklayer.ieee80211.mac.recipient.RecipientAckPolicy\""
par RoutingTableVisualizationDynamicShowcase.host1.wlan[0].mac.dcf.recipientAckPolicy rateSelectionModule "\"^.rateSelection\""
par RoutingTableVisualizationDynamicShowcase.host1.wlan[0].mac.dcf.rtsPolicy typename "\"inet.linklayer.ieee80211.mac.originator.RtsPolicy\""
par RoutingTableVisualizationDynamicShowcase.host1.wlan[0].mac.dcf.rtsPolicy rateSelectionModule "\"^.rateSelection\""
par RoutingTableVisualizationDynamicShowcase.host1.wlan[0].mac.dcf.rtsPolicy ctsTimeout -1s
attr unit s
par RoutingTableVisualizationDynamicShowcase.host1.wlan[0].mac.dcf.rtsPolicy rtsThreshold 2346B
attr unit B
par RoutingTableVisualizationDynamicShowcase.host1.wlan[0].mac.dcf.ctsPolicy typename "\"inet.linklayer.ieee80211.mac.recipient.CtsPolicy\""
par RoutingTableVisualizationDynamicShowcase.host1.wlan[0].mac.dcf.ctsPolicy rxModule "\"^.^.rx\""
par RoutingTableVisualizationDynamicShowcase.host1.wlan[0].mac.dcf.ctsPolicy rateSelectionModule "\"^.rateSelection\""
par RoutingTableVisualizationDynamicShowcase.host1.wlan[0].mac.dcf typename "\"inet.linklayer.ieee80211.mac.coordinationfunction.Dcf\""
par RoutingTableVisualizationDynamicShowcase.host1.wlan[0].mac.dcf rxModule "\"^.rx\""
par RoutingTableVisualizationDynamicShowcase.host1.wlan[0].mac.dcf txModule "\"^.tx\""
scalar RoutingTableVisualizationDynamicShowcase.host1.wlan[0].mac.dcf frameSequenceFinished:count 0
attr recordingmode count
attr title "finished frame sequences, count"
statistic RoutingTableVisualizationDynamicShowcase.host1.wlan[0].mac.dcf frameSequenceDuration:histogram
field count 0
field mean nan
field stddev nan
field min nan
field max nan
field sum 0
field sqrsum 0
attr recordingmode histogram
attr source frameSequenceDuration(frameSequenceFinished)
attr title "frame sequence durations"
bin	-inf	0
bin	0	0
bin	1	0
statistic RoutingTableVisualizationDynamicShowcase.host1.wlan[0].mac.dcf frameSequenceNumPackets:histogram
field count 0
field mean nan
field stddev nan
field min nan
field max nan
field sum 0
field sqrsum 0
attr recordingmode histogram
attr source frameSequenceNumPackets(frameSequenceFinished)
attr title "frame sequences: number of packets"
bin	-inf	0
bin	0	0
bin	1	0
scalar RoutingTableVisualizationDynamicShowcase.host1.wlan[0].mac.dcf packetReceivedFromPeer:count 0
attr interpolationmode none
attr recordingmode count
attr title "packets received, count"
scalar RoutingTableVisualizationDynamicShowcase.host1.wlan[0].mac.dcf packetReceivedFromPeer:sum(packetBytes) 0
attr interpolationmode none
attr recordingmode sum(packetBytes)
attr title "packets received, sum(packetBytes)"
scalar RoutingTableVisualizationDynamicShowcase.host1.wlan[0].mac.dcf packetReceivedFromPeerUnicast:count 0
attr interpolationmode none
attr recordingmode count
attr source ieee80211Unicast(packetReceivedFromPeer)
attr title "packets received: unicast, count"
scalar RoutingTableVisualizationDynamicShowcase.host1.wlan[0].mac.dcf packetReceivedFromPeerUnicast:sum(packetBytes) 0
attr interpolationmode none
attr recordingmode sum(packetBytes)
attr source ieee80211Unicast(packetReceivedFromPeer)
attr title "packets received: unicast, sum(packetBytes)"
scalar RoutingTableVisualizationDynamicShowcase.host1.wlan[0].mac.dcf packetReceivedFromPeerMulticast:count 0
attr interpolationmode none
attr recordingmode count
attr source ieee80211Multicast(packetReceivedFromPeer)
attr title "packets received: multicast, count"
scalar RoutingTableVisualizationDynamicShowcase.host1.wlan[0].mac.dcf packetReceivedFromPeerMulticast:sum(packetBytes) 0
attr interpolationmode none
attr recordingmode sum(packetBytes)
attr source ieee80211Multicast(packetReceivedFromPeer)
attr title "packets received: multicast, sum(packetBytes)"
scalar RoutingTableVisualizationDynamicShowcase.host1.wlan[0].mac.dcf packetReceivedFromPeerBroadcast:count 0
attr interpolationmode none
attr recordingmode count
attr source ieee80211Broadcast(packetReceivedFromPeer)
attr title "packets received: broadcast, count"
scalar RoutingTableVisualizationDynamicShowcase.host1.wlan[0].mac.dcf packetReceivedFromPeerBroadcast:sum(packetBytes) 0
attr interpolationmode none
attr recordingmode sum(packetBytes)
attr source ieee80211Broadcast(packetReceivedFromPeer)
attr title "packets received: broadcast, sum(packetBytes)"
scalar RoutingTableVisualizationDynamicShowcase.host1.wlan[0].mac.dcf packetReceivedFromPeerWithRetry:count 0
attr interpolationmode none
attr recordingmode count
attr source ieee80211Retry(packetReceivedFromPeer)
attr title "packets received: with retry, count"
scalar RoutingTableVisualizationDynamicShowcase.host1.wlan[0].mac.dcf packetReceivedFromPeerWithRetry:sum(packetBytes) 0
attr interpolationmode none
attr recordingmode sum(packetBytes)
attr source ieee80211Retry(packetReceivedFromPeer)
attr title "packets received: with retry, sum(packetBytes)"
scalar RoutingTableVisualizationDynamicShowcase.host1.wlan[0].mac.dcf packetReceivedFromPeerWithoutRetry:count 0
attr interpolationmode none
attr recordingmode count
attr source ieee80211NotRetry(packetReceivedFromPeer)
attr title "packets received: without retry, count"
scalar RoutingTableVisualizationDynamicShowcase.host1.wlan[0].mac.dcf packetReceivedFromPeerWithoutRetry:sum(packetBytes) 0
attr interpolationmode none
attr recordingmode sum(packetBytes)
attr source ieee80211NotRetry(packetReceivedFromPeer)
attr title "packets received: without retry, sum(packetBytes)"
scalar RoutingTableVisualizationDynamicShowcase.host1.wlan[0].mac.dcf packetSentToPeer:count 0
attr interpolationmode none
attr recordingmode count
attr title "packets sent, count"
scalar RoutingTableVisualizationDynamicShowcase.host1.wlan[0].mac.dcf packetSentToPeer:sum(packetBytes) 0
attr interpolationmode none
attr recordingmode sum(packetBytes)
attr title "packets sent, sum(packetBytes)"
scalar RoutingTableVisualizationDynamicShowcase.host1.wlan[0].mac.dcf packetSentToPeerUnicast:count 0
attr interpolationmode none
attr recordingmode count
attr source ieee80211Unicast(packetSentToPeer)
attr title "packets sent: unicast, count"
scalar RoutingTableVisualizationDynamicShowcase.host1.wlan[0].mac.dcf packetSentToPeerUnicast:sum(packetBytes) 0
attr interpolationmode none
attr recordingmode sum(packetBytes)
attr source ieee80211Unicast(packetSentToPeer)
attr title "packets sent: unicast, sum(packetBytes)"
scalar RoutingTableVisualizationDynamicShowcase.host1.wlan[0].mac.dcf packetSentToPeerMulticast:count 0
attr interpolationmode none
attr recordingmode count
attr source ieee80211Multicast(packetSentToPeer)
attr title "packets sent: multicast, count"
scalar RoutingTableVisualizationDynamicShowcase.host1.wlan[0].mac.dcf packetSentToPeerMulticast:sum(packetBytes) 0
attr interpolationmode none
attr recordingmode sum(packetBytes)
attr source ieee80211Multicast(packetSentToPeer)
attr title "packets sent: multicast, sum(packetBytes)"
scalar RoutingTableVisualizationDynamicShowcase.host1.wlan[0].mac.dcf packetSentToPeerBroadcast:count 0
attr interpolationmode none
attr recordingmode count
attr source ieee80211Broadcast(packetSentToPeer)
attr title "packets sent: broadcast , count"
scalar RoutingTableVisualizationDynamicShowcase.host1.wlan[0].mac.dcf packetSentToPeerBroadcast:sum(packetBytes) 0
attr interpolationmode none
attr recordingmode sum(packetBytes)
attr source ieee80211Broadcast(packetSentToPeer)
attr title "packets sent: broadcast , sum(packetBytes)"
scalar RoutingTableVisualizationDynamicShowcase.host1.wlan[0].mac.dcf packetSentToPeerWithRetry:count 0
attr interpolationmode none
attr recordingmode count
attr source ieee80211Retry(packetSentToPeer)
attr title "packets sent: with retry, count"
scalar RoutingTableVisualizationDynamicShowcase.host1.wlan[0].mac.dcf packetSentToPeerWithRetry:sum(packetBytes) 0
attr interpolationmode none
attr recordingmode sum(packetBytes)
attr source ieee80211Retry(packetSentToPeer)
attr title "packets sent: with retry, sum(packetBytes)"
scalar RoutingTableVisualizationDynamicShowcase.host1.wlan[0].mac.dcf packetSentToPeerWithoutRetry:count 0
attr interpolationmode none
attr recordingmode count
attr source ieee80211NotRetry(packetSentToPeer)
attr title "packets sent: without retry, count"
scalar RoutingTableVisualizationDynamicShowcase.host1.wlan[0].mac.dcf packetSentToPeerWithoutRetry:sum(packetBytes) 0
attr interpolationmode none
attr recordingmode sum(packetBytes)
attr source ieee80211NotRetry(packetSentToPeer)
attr title "packets sent: without retry, sum(packetBytes)"
scalar RoutingTableVisualizationDynamicShowcase.host1.wlan[0].mac.dcf packetDrop:count 0
attr interpolationmode none
attr recordingmode count
attr source packetDropped
attr title "packet drops, count"
scalar RoutingTableVisualizationDynamicShowcase.host1.wlan[0].mac.dcf packetDrop:sum(packetBytes) 0
attr interpolationmode none
attr recordingmode sum(packetBytes)
attr source packetDropped
attr title "packet drops, sum(packetBytes)"
scalar RoutingTableVisualizationDynamicShowcase.host1.wlan[0].mac.dcf packetDropNotAddressedToUs:count 0
attr interpolationmode none
attr recordingmode count
attr source packetDropReasonIsNotAddressedToUs(packetDropped)
attr title "packet drops: not addressed to us, count"
scalar RoutingTableVisualizationDynamicShowcase.host1.wlan[0].mac.dcf packetDropNotAddressedToUs:sum(packetBytes) 0
attr interpolationmode none
attr recordingmode sum(packetBytes)
attr source packetDropReasonIsNotAddressedToUs(packetDropped)
attr title "packet drops: not addressed to us, sum(packetBytes)"
scalar RoutingTableVisualizationDynamicShowcase.host1.wlan[0].mac.dcf packetDropQueueOverflow:count 0
attr interpolationmode none
attr recordingmode count
attr source packetDropReasonIsQueueOverflow(packetDropped)
attr title "packet drops: queue overflow, count"
scalar RoutingTableVisualizationDynamicShowcase.host1.wlan[0].mac.dcf packetDropQueueOverflow:sum(packetBytes) 0
attr interpolationmode none
attr recordingmode sum(packetBytes)
attr source packetDropReasonIsQueueOverflow(packetDropped)
attr title "packet drops: queue overflow, sum(packetBytes)"
scalar RoutingTableVisualizationDynamicShowcase.host1.wlan[0].mac.dcf packetDropRetryLimitReached:count 0
attr interpolationmode none
attr recordingmode count
attr source packetDropReasonIsRetryLimitReached(packetDropped)
attr title "packet drops: retry limit reached, count"
scalar RoutingTableVisualizationDynamicShowcase.host1.wlan[0].mac.dcf packetDropRetryLimitReached:sum(packetBytes) 0
attr interpolationmode none
attr recordingmode sum(packetBytes)
attr source packetDropReasonIsRetryLimitReached(packetDropped)
attr title "packet drops: retry limit reached, sum(packetBytes)"
scalar RoutingTableVisualizationDynamicShowcase.host1.wlan[0].mac.dcf linkBroken:count 0
attr interpolationmode none
attr recordingmode count
attr title "link breaks, count"
par RoutingTableVisualizationDynamicShowcase.host1.wlan[0].mac.ds typename "\"inet.linklayer.ieee80211.mac.Ds\""
par RoutingTableVisualizationDynamicShowcase.host1.wlan[0].mac.ds mibModule "\"RoutingTableVisualizationDynamicShowcase.host1.wlan[0].mib\""
par RoutingTableVisualizationDynamicShowcase.host1.wlan[0].mac.rx typename "\"inet.linklayer.ieee80211.mac.Rx\""
par RoutingTableVisualizationDynamicShowcase.host1.wlan[0].mac.tx typename "\"inet.linklayer.ieee80211.mac.Tx\""
par RoutingTableVisualizationDynamicShowcase.host1.wlan[0].mac.tx rxModule "\"^.rx\""
par RoutingTableVisualizationDynamicShowcase.host1.wlan[0].mac typename "\"inet.linklayer.ieee80211.mac.Ieee80211Mac\""
par RoutingTableVisualizationDynamicShowcase.host1.wlan[0].mac interfaceTableModule "\"RoutingTableVisualizationDynamicShowcase.host1.interfaceTable\""
par RoutingTableVisualizationDynamicShowcase.host1.wlan[0].mac mibModule "\"RoutingTableVisualizationDynamicShowcase.host1.wlan[0].mib\""
par RoutingTableVisualizationDynamicShowcase.host1.wlan[0].mac modeSet "\"g(mixed)\""
attr enum a,b,g(erp),g(mixed),n(mixed-2.4Ghz),p,ac
par RoutingTableVisualizationDynamicShowcase.host1.wlan[0].mac fcsMode "\"declared\""
attr enum declared,computed
par RoutingTableVisualizationDynamicShowcase.host1.wlan[0].mac initialRadioMode "\"receiver\""
attr enum off,sleep,receiver,transmitter,transceiver
par RoutingTableVisualizationDynamicShowcase.host1.wlan[0].mac mtu 2304B
attr unit B
par RoutingTableVisualizationDynamicShowcase.host1.wlan[0].mac qosStation false
scalar RoutingTableVisualizationDynamicShowcase.host1.wlan[0].mac packetReceivedFromLower:count 0
attr interpolationmode none
attr recordingmode count
attr title "packets received from lower layer, count"
scalar RoutingTableVisualizationDynamicShowcase.host1.wlan[0].mac packetReceivedFromLower:sum(packetBytes) 0
attr interpolationmode none
attr recordingmode sum(packetBytes)
attr title "packets received from lower layer, sum(packetBytes)"
scalar RoutingTableVisualizationDynamicShowcase.host1.wlan[0].mac packetSentToLower:count 0
attr interpolationmode none
attr recordingmode count
attr title "packets sent to lower layer, count"
scalar RoutingTableVisualizationDynamicShowcase.host1.wlan[0].mac packetSentToLower:sum(packetBytes) 0
attr interpolationmode none
attr recordingmode sum(packetBytes)
attr title "packets sent to lower layer, sum(packetBytes)"
scalar RoutingTableVisualizationDynamicShowcase.host1.wlan[0].mac packetReceivedFromUpper:count 0
attr interpolationmode none
attr recordingmode count
attr title "packets received from upper layer, count"
scalar RoutingTableVisualizationDynamicShowcase.host1.wlan[0].mac packetReceivedFromUpper:sum(packetBytes) 0
attr interpolationmode none
attr recordingmode sum(packetBytes)
attr title "packets received from upper layer, sum(packetBytes)"
scalar RoutingTableVisualizationDynamicShowcase.host1.wlan[0].mac packetSentToUpper:count 0
attr interpolationmode none
attr recordingmode count
attr title "packets sent to upper layer, count"
scalar RoutingTableVisualizationDynamicShowcase.host1.wlan[0].mac packetSentToUpper:sum(packetBytes) 0
attr interpolationmode none
attr recordingmode sum(packetBytes)
attr title "packets sent to upper layer, sum(packetBytes)"
scalar RoutingTableVisualizationDynamicShowcase.host1.wlan[0].mac packetDrop:count 0
attr interpolationmode none
attr recordingmode count
attr source packetDropped
attr title "packet drops, count"
scalar RoutingTableVisualizationDynamicShowcase.host1.wlan[0].mac packetDrop:sum(packetBytes) 0
attr interpolationmode none
attr recordingmode sum(packetBytes)
attr source packetDropped
attr title "packet drops, sum(packetBytes)"
scalar RoutingTableVisualizationDynamicShowcase.host1.wlan[0].mac packetDropIncorrectlyReceived:count 0
attr interpolationmode none
attr recordingmode count
attr source packetDropReasonIsIncorrectlyReceived(packetDropped)
attr title "packet drops: incorrectly received, count"
scalar RoutingTableVisualizationDynamicShowcase.host1.wlan[0].mac packetDropIncorrectlyReceived:sum(packetBytes) 0
attr interpolationmode none
attr recordingmode sum(packetBytes)
attr source packetDropReasonIsIncorrectlyReceived(packetDropped)
attr title "packet drops: incorrectly received, sum(packetBytes)"
scalar RoutingTableVisualizationDynamicShowcase.host1.wlan[0].mac packetDropNotAddressedToUs:count 0
attr interpolationmode none
attr recordingmode count
attr source packetDropReasonIsNotAddressedToUs(packetDropped)
attr title "packet drops: not addressed to us, count"
scalar RoutingTableVisualizationDynamicShowcase.host1.wlan[0].mac packetDropNotAddressedToUs:sum(packetBytes) 0
attr interpolationmode none
attr recordingmode sum(packetBytes)
attr source packetDropReasonIsNotAddressedToUs(packetDropped)
attr title "packet drops: not addressed to us, sum(packetBytes)"
scalar RoutingTableVisualizationDynamicShowcase.host1.wlan[0].mac packetDropQueueOverflow:count 0
attr interpolationmode none
attr recordingmode count
attr source packetDropReasonIsQueueOverflow(packetDropped)
attr title "packet drops: queue overflow, count"
scalar RoutingTableVisualizationDynamicShowcase.host1.wlan[0].mac packetDropQueueOverflow:sum(packetBytes) 0
attr interpolationmode none
attr recordingmode sum(packetBytes)
attr source packetDropReasonIsQueueOverflow(packetDropped)
attr title "packet drops: queue overflow, sum(packetBytes)"
scalar RoutingTableVisualizationDynamicShowcase.host1.wlan[0].mac packetDropRetryLimitReached:count 0
attr interpolationmode none
attr recordingmode count
attr source packetDropReasonIsRetryLimitReached(packetDropped)
attr title "packet drops: retry limit reached, count"
scalar RoutingTableVisualizationDynamicShowcase.host1.wlan[0].mac packetDropRetryLimitReached:sum(packetBytes) 0
attr interpolationmode none
attr recordingmode sum(packetBytes)
attr source packetDropReasonIsRetryLimitReached(packetDropped)
attr title "packet drops: retry limit reached, sum(packetBytes)"
scalar RoutingTableVisualizationDynamicShowcase.host1.wlan[0].mac packetDropDuplicateDetected:count 0
attr interpolationmode none
attr recordingmode count
attr source packetDropReasonIsDuplicateDetected(packetDropped)
attr title "packet drops: duplicate detected, count"
scalar RoutingTableVisualizationDynamicShowcase.host1.wlan[0].mac packetDropDuplicateDetected:sum(packetBytes) 0
attr interpolationmode none
attr recordingmode sum(packetBytes)
attr source packetDropReasonIsDuplicateDetected(packetDropped)
attr title "packet drops: duplicate detected, sum(packetBytes)"
scalar RoutingTableVisualizationDynamicShowcase.host1.wlan[0].mac packetDropOther:count 0
attr interpolationmode none
attr recordingmode count
attr source packetDropReasonIsOther(packetDropped)
attr title "packet drops: other, count"
scalar RoutingTableVisualizationDynamicShowcase.host1.wlan[0].mac packetDropOther:sum(packetBytes) 0
attr interpolationmode none
attr recordingmode sum(packetBytes)
attr source packetDropReasonIsOther(packetDropped)
attr title "packet drops: other, sum(packetBytes)"
scalar RoutingTableVisualizationDynamicShowcase.host1.wlan[0].mac linkBroken:count 0
attr interpolationmode none
attr recordingmode count
attr title "link breaks, count"
par RoutingTableVisualizationDynamicShowcase.host1.wlan[0].radio.antenna typename "\"inet.physicallayer.wireless.common.antenna.IsotropicAntenna\""
par RoutingTableVisualizationDynamicShowcase.host1.wlan[0].radio.antenna mobilityModule "\"^.^.^.mobility\""
par RoutingTableVisualizationDynamicShowcase.host1.wlan[0].radio.antenna numAntennas 1
par RoutingTableVisualizationDynamicShowcase.host1.wlan[0].radio.transmitter typename "\"inet.physicallayer.wireless.ieee80211.packetlevel.Ieee80211ScalarTransmitter\""
par RoutingTableVisualizationDynamicShowcase.host1.wlan[0].radio.transmitter preambleDuration -1s
attr unit s
par RoutingTableVisualizationDynamicShowcase.host1.wlan[0].radio.transmitter headerLength 192b
attr unit b
par RoutingTableVisualizationDynamicShowcase.host1.wlan[0].radio.transmitter bitrate -1bps
attr unit bps
par RoutingTableVisualizationDynamicShowcase.host1.wlan[0].radio.transmitter power 0.001W
attr unit W
par RoutingTableVisualizationDynamicShowcase.host1.wlan[0].radio.transmitter centerFrequency 2.412e+09Hz
attr unit Hz
par RoutingTableVisualizationDynamicShowcase.host1.wlan[0].radio.transmitter bandwidth "nan Hz"
attr unit Hz
par RoutingTableVisualizationDynamicShowcase.host1.wlan[0].radio.transmitter codeRate 1
par RoutingTableVisualizationDynamicShowcase.host1.wlan[0].radio.transmitter modulation "\"BPSK\""
par RoutingTableVisualizationDynamicShowcase.host1.wlan[0].radio.transmitter opMode "\"g(mixed)\""
attr enum a,b,g(erp),g(mixed),n(mixed-2.4Ghz),p,ac
par RoutingTableVisualizationDynamicShowcase.host1.wlan[0].radio.transmitter bandName "\"2.4 GHz\""
attr enum "2.4 GHz,5 GHz,5 GHz (20 MHz),5 GHz (40 MHz),5 GHz (80 MHz),5 GHz (160 MHz),5.9 GHz"
par RoutingTableVisualizationDynamicShowcase.host1.wlan[0].radio.transmitter channelNumber 0
par RoutingTableVisualizationDynamicShowcase.host1.wlan[0].radio.receiver.errorModel typename "\"inet.physicallayer.wireless.ieee80211.packetlevel.errormodel.Ieee80211NistErrorModel\""
par RoutingTableVisualizationDynamicShowcase.host1.wlan[0].radio.receiver.errorModel corruptionMode "\"packet\""
attr enum packet,chunk,byte,bit
par RoutingTableVisualizationDynamicShowcase.host1.wlan[0].radio.receiver.errorModel snirMode "\"min\""
attr enum min,mean
par RoutingTableVisualizationDynamicShowcase.host1.wlan[0].radio.receiver.errorModel snirOffset 0dB
attr unit dB
par RoutingTableVisualizationDynamicShowcase.host1.wlan[0].radio.receiver typename "\"inet.physicallayer.wireless.ieee80211.packetlevel.Ieee80211ScalarReceiver\""
par RoutingTableVisualizationDynamicShowcase.host1.wlan[0].radio.receiver snirThreshold 4dB
attr unit dB
par RoutingTableVisualizationDynamicShowcase.host1.wlan[0].radio.receiver snirThresholdMode "\"min\""
attr enum min,mean
par RoutingTableVisualizationDynamicShowcase.host1.wlan[0].radio.receiver energyDetection -85dBm
attr unit dBm
par RoutingTableVisualizationDynamicShowcase.host1.wlan[0].radio.receiver sensitivity -85dBm
attr unit dBm
par RoutingTableVisualizationDynamicShowcase.host1.wlan[0].radio.receiver centerFrequency 2.412e+09Hz
attr unit Hz
par RoutingTableVisualizationDynamicShowcase.host1.wlan[0].radio.receiver bandwidth 2.2e+07Hz
attr unit Hz
par RoutingTableVisualizationDynamicShowcase.host1.wlan[0].radio.receiver modulation "\"BPSK\""
par RoutingTableVisualizationDynamicShowcase.host1.wlan[0].radio.receiver opMode "\"g(mixed)\""
attr enum a,b,g(erp),g(mixed),n(mixed-2.4Ghz),p,ac
par RoutingTableVisualizationDynamicShowcase.host1.wlan[0].radio.receiver bandName "\"2.4 GHz\""
attr enum "2.4 GHz,5 GHz,5 GHz (20 MHz),5 GHz (40 MHz),5 GHz (80 MHz),5 GHz (160 MHz),5.9 GHz"
par RoutingTableVisualizationDynamicShowcase.host1.wlan[0].radio.receiver channelNumber 0
par RoutingTableVisualizationDynamicShowcase.host1.wlan[0].radio typename "\"inet.physicallayer.wireless.ieee80211.packetlevel.Ieee80211ScalarRadio\""
par RoutingTableVisualizationDynamicShowcase.host1.wlan[0].radio radioMediumModule "\"radioMedium\""
par RoutingTableVisualizationDynamicShowcase.host1.wlan[0].radio energySourceModule "\"\""
par RoutingTableVisualizationDynamicShowcase.host1.wlan[0].radio initialRadioMode "\"off\""
attr enum off,sleep,receiver,transmitter,transceiver
par RoutingTableVisualizationDynamicShowcase.host1.wlan[0].radio switchingTimes "\"ms 0 0 0 0 0 0 0 0 0 0 0 0 0 0 0 0 0 0 0 0 0 0 0 0 0\""
par RoutingTableVisualizationDynamicShowcase.host1.wlan[0].radio sendRawBytes false
par RoutingTableVisualizationDynamicShowcase.host1.wlan[0].radio separateTransmissionParts false
par RoutingTableVisualizationDynamicShowcase.host1.wlan[0].radio separateReceptionParts false
par RoutingTableVisualizationDynamicShowcase.host1.wlan[0].radio displayCommunicationRange false
par RoutingTableVisualizationDynamicShowcase.host1.wlan[0].radio displayInterferenceRange false
par RoutingTableVisualizationDynamicShowcase.host1.wlan[0].radio centerFrequency 2.412e+09Hz
attr unit Hz
par RoutingTableVisualizationDynamicShowcase.host1.wlan[0].radio bandwidth "nan Hz"
attr unit Hz
par RoutingTableVisualizationDynamicShowcase.host1.wlan[0].radio signalAnalogRepresentation "\"scalar\""
attr enum scalar,dimensional
par RoutingTableVisualizationDynamicShowcase.host1.wlan[0].radio opMode "\"g(mixed)\""
attr enum a,b,g(erp),g(mixed),n(mixed-2.4Ghz),p,ac
par RoutingTableVisualizationDynamicShowcase.host1.wlan[0].radio bandName "\"2.4 GHz\""
attr enum "2.4 GHz,5 GHz,5 GHz (20 MHz),5 GHz (40 MHz),5 GHz (80 MHz),5 GHz (160 MHz),5.9 GHz"
par RoutingTableVisualizationDynamicShowcase.host1.wlan[0].radio channelNumber 0
par RoutingTableVisualizationDynamicShowcase.host1.wlan[0].radio crcMode "\"declared\""
attr enum declared,computed
statistic RoutingTableVisualizationDynamicShowcase.host1.wlan[0].radio radioChannel:histogram
field count 1
field mean 0
field stddev nan
field min 0
field max 0
field sum 0
field sqrsum 0
attr interpolationmode sample-hold
attr recordingmode histogram
attr source radioChannelChanged
attr title "Radio channel"
bin	-inf	0
bin	-0.5	0
bin	-0.48	0
bin	-0.46	0
bin	-0.44	0
bin	-0.42	0
bin	-0.4	0
bin	-0.38	0
bin	-0.36	0
bin	-0.34	0
bin	-0.32	0
bin	-0.3	0
bin	-0.28	0
bin	-0.26	0
bin	-0.24	0
bin	-0.22	0
bin	-0.2	0
bin	-0.18	0
bin	-0.16	0
bin	-0.14	0
bin	-0.12	0
bin	-0.1	0
bin	-0.08	0
bin	-0.06	0
bin	-0.04	0
bin	-0.02	0
bin	0	1
bin	0.02	0
bin	0.04	0
bin	0.06	0
bin	0.08	0
bin	0.1	0
bin	0.12	0
bin	0.14	0
bin	0.16	0
bin	0.18	0
bin	0.2	0
bin	0.22	0
bin	0.24	0
bin	0.26	0
bin	0.28	0
bin	0.3	0
bin	0.32	0
bin	0.34	0
bin	0.36	0
bin	0.38	0
bin	0.4	0
bin	0.42	0
bin	0.44	0
bin	0.46	0
bin	0.48	0
bin	0.5	0
scalar RoutingTableVisualizationDynamicShowcase.host1.wlan[0].radio radioMode:count 3
attr interpolationmode sample-hold
attr recordingmode count
attr source radioModeChanged
attr title "Radio mode, count"
scalar RoutingTableVisualizationDynamicShowcase.host1.wlan[0].radio receptionState:count 1
attr interpolationmode sample-hold
attr recordingmode count
attr source receptionStateChanged
attr title "Radio reception state, count"
scalar RoutingTableVisualizationDynamicShowcase.host1.wlan[0].radio transmissionState:count 0
attr interpolationmode sample-hold
attr recordingmode count
attr source transmissionStateChanged
attr title "Radio transmission state, count"
statistic RoutingTableVisualizationDynamicShowcase.host1.wlan[0].radio minSnir:histogram
field count 0
field mean nan
field stddev nan
field min nan
field max nan
field sum 0
field sqrsum 0
attr recordingmode histogram
attr source minimumSnir(packetSentToUpper)
attr title "Min SNIR"
bin	-inf	0
bin	0	0
bin	1	0
statistic RoutingTableVisualizationDynamicShowcase.host1.wlan[0].radio packetErrorRate:histogram
field count 0
field mean nan
field stddev nan
field min nan
field max nan
field sum 0
field sqrsum 0
attr recordingmode histogram
attr source packetErrorRate(packetSentToUpper)
attr title "Packet error rate"
bin	-inf	0
bin	0	0
bin	1	0
statistic RoutingTableVisualizationDynamicShowcase.host1.wlan[0].radio bitErrorRate:histogram
field count 0
field mean nan
field stddev nan
field min nan
field max nan
field sum 0
field sqrsum 0
attr recordingmode histogram
attr source bitErrorRate(packetSentToUpper)
attr title "Bit error rate"
bin	-inf	0
bin	0	0
bin	1	0
statistic RoutingTableVisualizationDynamicShowcase.host1.wlan[0].radio symbolErrorRate:histogram
field count 0
field mean nan
field stddev nan
field min nan
field max nan
field sum 0
field sqrsum 0
attr recordingmode histogram
attr source symbolErrorRate(packetSentToUpper)
attr title "Symbol error rate"
bin	-inf	0
bin	0	0
bin	1	0
par RoutingTableVisualizationDynamicShowcase.host1.wlan[0] typename "\"inet.linklayer.ieee80211.Ieee80211Interface\""
par RoutingTableVisualizationDynamicShowcase.host1.wlan[0] displayStringTextFormat "\"%a (%i)\\n%m\""
par RoutingTableVisualizationDynamicShowcase.host1.wlan[0] recordPcap false
par RoutingTableVisualizationDynamicShowcase.host1.wlan[0] numPcapRecorders 0
par RoutingTableVisualizationDynamicShowcase.host1.wlan[0] interfaceTableModule "\"RoutingTableVisualizationDynamicShowcase.host1.interfaceTable\""
par RoutingTableVisualizationDynamicShowcase.host1.wlan[0] energySourceModule "\"\""
par RoutingTableVisualizationDynamicShowcase.host1.wlan[0] opMode "\"g(mixed)\""
attr enum a,b,g(erp),g(mixed),n(mixed-2.4Ghz),p,ac
par RoutingTableVisualizationDynamicShowcase.host1.wlan[0] address "\"0A-AA-00-00-00-01\""
attr mutable ""
par RoutingTableVisualizationDynamicShowcase.host1.wlan[0] protocol "\"\""
par RoutingTableVisualizationDynamicShowcase.host1.wlan[0] bitrate -1bps
attr unit bps
scalar RoutingTableVisualizationDynamicShowcase.host1.wlan[0] packetDropInterfaceDown:count 0
attr interpolationmode none
attr recordingmode count
attr source packetDropReasonIsInterfaceDown(packetDropped)
attr title "packet drops: interface down, count"
scalar RoutingTableVisualizationDynamicShowcase.host1.wlan[0] packetDropInterfaceDown:sum(packetBytes) 0
attr interpolationmode none
attr recordingmode sum(packetBytes)
attr source packetDropReasonIsInterfaceDown(packetDropped)
attr title "packet drops: interface down, sum(packetBytes)"
scalar RoutingTableVisualizationDynamicShowcase.host1.wlan[0] packetDropNoCarrier:count 0
attr interpolationmode none
attr recordingmode count
attr source packetDropReasonIsNoCarrier(packetDropped)
attr title "packet drops: no carrier, count"
scalar RoutingTableVisualizationDynamicShowcase.host1.wlan[0] packetDropNoCarrier:sum(packetBytes) 0
attr interpolationmode none
attr recordingmode sum(packetBytes)
attr source packetDropReasonIsNoCarrier(packetDropped)
attr title "packet drops: no carrier, sum(packetBytes)"
par RoutingTableVisualizationDynamicShowcase.host1.ipv4.transportIn.channel typename "\"ned.IdealChannel\""
par RoutingTableVisualizationDynamicShowcase.host1.ipv4.up.out[0].channel typename "\"ned.IdealChannel\""
par RoutingTableVisualizationDynamicShowcase.host1.ipv4.lp.out[2].channel typename "\"ned.IdealChannel\""
par RoutingTableVisualizationDynamicShowcase.host1.ipv4.ifIn.channel typename "\"ned.IdealChannel\""
par RoutingTableVisualizationDynamicShowcase.host1.ipv4.configurator typename "\"inet.networklayer.configurator.ipv4.Ipv4NodeConfigurator\""
par RoutingTableVisualizationDynamicShowcase.host1.ipv4.configurator interfaceTableModule "\"RoutingTableVisualizationDynamicShowcase.host1.interfaceTable\""
par RoutingTableVisualizationDynamicShowcase.host1.ipv4.configurator routingTableModule "\"RoutingTableVisualizationDynamicShowcase.host1.ipv4.routingTable\""
par RoutingTableVisualizationDynamicShowcase.host1.ipv4.configurator networkConfiguratorModule "\"configurator\""
par RoutingTableVisualizationDynamicShowcase.host1.ipv4.configurator configureRoutingTable true
par RoutingTableVisualizationDynamicShowcase.host1.ipv4.routingTable typename "\"inet.networklayer.ipv4.Ipv4RoutingTable\""
par RoutingTableVisualizationDynamicShowcase.host1.ipv4.routingTable interfaceTableModule "\"RoutingTableVisualizationDynamicShowcase.host1.interfaceTable\""
par RoutingTableVisualizationDynamicShowcase.host1.ipv4.routingTable routerId "\"auto\""
par RoutingTableVisualizationDynamicShowcase.host1.ipv4.routingTable netmaskRoutes "\"\""
par RoutingTableVisualizationDynamicShowcase.host1.ipv4.routingTable forwarding true
par RoutingTableVisualizationDynamicShowcase.host1.ipv4.routingTable multicastForwarding false
par RoutingTableVisualizationDynamicShowcase.host1.ipv4.routingTable useAdminDist false
par RoutingTableVisualizationDynamicShowcase.host1.ipv4.routingTable routingFile "\"\""
par RoutingTableVisualizationDynamicShowcase.host1.ipv4.natTable typename "\"inet.networklayer.ipv4.Ipv4NatTable\""
par RoutingTableVisualizationDynamicShowcase.host1.ipv4.natTable networkProtocolModule "\"^.ip\""
par RoutingTableVisualizationDynamicShowcase.host1.ipv4.natTable config "<config/> at content:1"
par RoutingTableVisualizationDynamicShowcase.host1.ipv4.up typename "\"inet.common.MessageDispatcher\""
par RoutingTableVisualizationDynamicShowcase.host1.ipv4.up displayStringTextFormat "\"processed %p pk (%l)\""
par RoutingTableVisualizationDynamicShowcase.host1.ipv4.up forwardServiceRegistration true
par RoutingTableVisualizationDynamicShowcase.host1.ipv4.up forwardProtocolRegistration true
par RoutingTableVisualizationDynamicShowcase.host1.ipv4.igmp typename "\"inet.networklayer.ipv4.Igmpv2\""
par RoutingTableVisualizationDynamicShowcase.host1.ipv4.igmp interfaceTableModule "\"RoutingTableVisualizationDynamicShowcase.host1.interfaceTable\""
par RoutingTableVisualizationDynamicShowcase.host1.ipv4.igmp routingTableModule "\"RoutingTableVisualizationDynamicShowcase.host1.ipv4.routingTable\""
par RoutingTableVisualizationDynamicShowcase.host1.ipv4.igmp crcMode "\"declared\""
attr enum declared,computed
par RoutingTableVisualizationDynamicShowcase.host1.ipv4.igmp enabled true
par RoutingTableVisualizationDynamicShowcase.host1.ipv4.igmp robustnessVariable 2
par RoutingTableVisualizationDynamicShowcase.host1.ipv4.igmp queryInterval 125s
attr unit s
par RoutingTableVisualizationDynamicShowcase.host1.ipv4.igmp queryResponseInterval 10s
attr unit s
par RoutingTableVisualizationDynamicShowcase.host1.ipv4.igmp groupMembershipInterval 260s
attr unit s
par RoutingTableVisualizationDynamicShowcase.host1.ipv4.igmp otherQuerierPresentInterval 255s
attr unit s
par RoutingTableVisualizationDynamicShowcase.host1.ipv4.igmp startupQueryInterval 31.25s
attr unit s
par RoutingTableVisualizationDynamicShowcase.host1.ipv4.igmp startupQueryCount 2
par RoutingTableVisualizationDynamicShowcase.host1.ipv4.igmp lastMemberQueryInterval 1s
attr unit s
par RoutingTableVisualizationDynamicShowcase.host1.ipv4.igmp lastMemberQueryCount 2
par RoutingTableVisualizationDynamicShowcase.host1.ipv4.igmp unsolicitedReportInterval 10s
attr unit s
par RoutingTableVisualizationDynamicShowcase.host1.ipv4.icmp typename "\"inet.networklayer.ipv4.Icmp\""
par RoutingTableVisualizationDynamicShowcase.host1.ipv4.icmp interfaceTableModule "\"RoutingTableVisualizationDynamicShowcase.host1.interfaceTable\""
par RoutingTableVisualizationDynamicShowcase.host1.ipv4.icmp routingTableModule "\"RoutingTableVisualizationDynamicShowcase.host1.ipv4.routingTable\""
par RoutingTableVisualizationDynamicShowcase.host1.ipv4.icmp crcMode "\"declared\""
attr enum declared,computed
attr mutable ""
par RoutingTableVisualizationDynamicShowcase.host1.ipv4.icmp quoteLength 8B
attr mutable ""
attr unit B
par RoutingTableVisualizationDynamicShowcase.host1.ipv4.mp typename "\"inet.common.MessageDispatcher\""
par RoutingTableVisualizationDynamicShowcase.host1.ipv4.mp displayStringTextFormat "\"processed %p pk (%l)\""
par RoutingTableVisualizationDynamicShowcase.host1.ipv4.mp forwardServiceRegistration true
par RoutingTableVisualizationDynamicShowcase.host1.ipv4.mp forwardProtocolRegistration true
par RoutingTableVisualizationDynamicShowcase.host1.ipv4.ip typename "\"inet.networklayer.ipv4.Ipv4\""
par RoutingTableVisualizationDynamicShowcase.host1.ipv4.ip interfaceTableModule "\"RoutingTableVisualizationDynamicShowcase.host1.interfaceTable\""
par RoutingTableVisualizationDynamicShowcase.host1.ipv4.ip routingTableModule "\"RoutingTableVisualizationDynamicShowcase.host1.ipv4.routingTable\""
par RoutingTableVisualizationDynamicShowcase.host1.ipv4.ip arpModule "\"RoutingTableVisualizationDynamicShowcase.host1.ipv4.arp\""
par RoutingTableVisualizationDynamicShowcase.host1.ipv4.ip icmpModule "\"RoutingTableVisualizationDynamicShowcase.host1.ipv4.icmp\""
par RoutingTableVisualizationDynamicShowcase.host1.ipv4.ip crcMode "\"declared\""
attr enum declared,computed
par RoutingTableVisualizationDynamicShowcase.host1.ipv4.ip timeToLive 32
par RoutingTableVisualizationDynamicShowcase.host1.ipv4.ip multicastTimeToLive 32
par RoutingTableVisualizationDynamicShowcase.host1.ipv4.ip fragmentTimeout 60s
attr unit s
par RoutingTableVisualizationDynamicShowcase.host1.ipv4.ip limitedBroadcast false
par RoutingTableVisualizationDynamicShowcase.host1.ipv4.ip directBroadcastInterfaces "\"\""
scalar RoutingTableVisualizationDynamicShowcase.host1.ipv4.ip packetDropAddressResolutionFailed:count 0
attr interpolationmode none
attr recordingmode count
attr source packetDropReasonIsAddressResolutionFailed(packetDropped)
attr title "packet drop: address resolution failed, count"
scalar RoutingTableVisualizationDynamicShowcase.host1.ipv4.ip packetDropAddressResolutionFailed:sum(packetBytes) 0
attr interpolationmode none
attr recordingmode sum(packetBytes)
attr source packetDropReasonIsAddressResolutionFailed(packetDropped)
attr title "packet drop: address resolution failed, sum(packetBytes)"
scalar RoutingTableVisualizationDynamicShowcase.host1.ipv4.ip packetDropHopLimitReached:count 0
attr interpolationmode none
attr recordingmode count
attr source packetDropReasonIsHopLimitReached(packetDropped)
attr title "packet drop: hop limit reached, count"
scalar RoutingTableVisualizationDynamicShowcase.host1.ipv4.ip packetDropHopLimitReached:sum(packetBytes) 0
attr interpolationmode none
attr recordingmode sum(packetBytes)
attr source packetDropReasonIsHopLimitReached(packetDropped)
attr title "packet drop: hop limit reached, sum(packetBytes)"
scalar RoutingTableVisualizationDynamicShowcase.host1.ipv4.ip packetDropForwardingDisabled:count 0
attr interpolationmode none
attr recordingmode count
attr source packetDropReasonIsForwardingDisabled(packetDropped)
attr title "packet drop: forwarding disabled, count"
scalar RoutingTableVisualizationDynamicShowcase.host1.ipv4.ip packetDropForwardingDisabled:sum(packetBytes) 0
attr interpolationmode none
attr recordingmode sum(packetBytes)
attr source packetDropReasonIsForwardingDisabled(packetDropped)
attr title "packet drop: forwarding disabled, sum(packetBytes)"
scalar RoutingTableVisualizationDynamicShowcase.host1.ipv4.ip packetDropNoInterfaceFound:count 0
attr interpolationmode none
attr recordingmode count
attr source packetDropReasonIsNoInterfaceFound(packetDropped)
attr title "packet drop: no interface found, count"
scalar RoutingTableVisualizationDynamicShowcase.host1.ipv4.ip packetDropNoInterfaceFound:sum(packetBytes) 0
attr interpolationmode none
attr recordingmode sum(packetBytes)
attr source packetDropReasonIsNoInterfaceFound(packetDropped)
attr title "packet drop: no interface found, sum(packetBytes)"
scalar RoutingTableVisualizationDynamicShowcase.host1.ipv4.ip packetDropNoRouteFound:count 0
attr interpolationmode none
attr recordingmode count
attr source packetDropReasonIsNoRouteFound(packetDropped)
attr title "packet drop: no route found, count"
scalar RoutingTableVisualizationDynamicShowcase.host1.ipv4.ip packetDropNoRouteFound:sum(packetBytes) 0
attr interpolationmode none
attr recordingmode sum(packetBytes)
attr source packetDropReasonIsNoRouteFound(packetDropped)
attr title "packet drop: no route found, sum(packetBytes)"
scalar RoutingTableVisualizationDynamicShowcase.host1.ipv4.ip packetDropUndefined:count 0
attr interpolationmode none
attr recordingmode count
attr source packetDropReasonIsUndefined(packetDropped)
attr title "packet drop: undefined, count"
scalar RoutingTableVisualizationDynamicShowcase.host1.ipv4.ip packetDropUndefined:sum(packetBytes) 0
attr interpolationmode none
attr recordingmode sum(packetBytes)
attr source packetDropReasonIsUndefined(packetDropped)
attr title "packet drop: undefined, sum(packetBytes)"
par RoutingTableVisualizationDynamicShowcase.host1.ipv4.arp typename "\"inet.networklayer.arp.ipv4.Arp\""
par RoutingTableVisualizationDynamicShowcase.host1.ipv4.arp interfaceTableModule "\"RoutingTableVisualizationDynamicShowcase.host1.interfaceTable\""
par RoutingTableVisualizationDynamicShowcase.host1.ipv4.arp routingTableModule "\"RoutingTableVisualizationDynamicShowcase.host1.ipv4.routingTable\""
par RoutingTableVisualizationDynamicShowcase.host1.ipv4.arp retryTimeout 1s
attr unit s
par RoutingTableVisualizationDynamicShowcase.host1.ipv4.arp retryCount 3
par RoutingTableVisualizationDynamicShowcase.host1.ipv4.arp cacheTimeout 120s
attr unit s
par RoutingTableVisualizationDynamicShowcase.host1.ipv4.arp proxyArpInterfaces "\"\""
scalar RoutingTableVisualizationDynamicShowcase.host1.ipv4.arp arpResolutionFailed:count 0
attr recordingmode count
attr title "ARP failed resolutions, count"
scalar RoutingTableVisualizationDynamicShowcase.host1.ipv4.arp arpResolutionCompleted:count 0
attr recordingmode count
attr title "ARP completed resolutions, count"
scalar RoutingTableVisualizationDynamicShowcase.host1.ipv4.arp arpResolutionInitiated:count 0
attr recordingmode count
attr title "ARP initiated resolutions, count"
scalar RoutingTableVisualizationDynamicShowcase.host1.ipv4.arp arpReplySent:count 0
attr recordingmode count
attr source arpReplySent
attr title "ARP replies sent, count"
scalar RoutingTableVisualizationDynamicShowcase.host1.ipv4.arp arpReplySent:sum(packetBytes) 0
attr recordingmode sum(packetBytes)
attr source arpReplySent
attr title "ARP replies sent, sum(packetBytes)"
scalar RoutingTableVisualizationDynamicShowcase.host1.ipv4.arp arpRequestSent:count 0
attr recordingmode count
attr source arpRequestSent
attr title "ARP request sent, count"
scalar RoutingTableVisualizationDynamicShowcase.host1.ipv4.arp arpRequestSent:sum(packetBytes) 0
attr recordingmode sum(packetBytes)
attr source arpRequestSent
attr title "ARP request sent, sum(packetBytes)"
par RoutingTableVisualizationDynamicShowcase.host1.ipv4.lp typename "\"inet.common.MessageDispatcher\""
par RoutingTableVisualizationDynamicShowcase.host1.ipv4.lp displayStringTextFormat "\"processed %p pk (%l)\""
par RoutingTableVisualizationDynamicShowcase.host1.ipv4.lp forwardServiceRegistration true
par RoutingTableVisualizationDynamicShowcase.host1.ipv4.lp forwardProtocolRegistration true
par RoutingTableVisualizationDynamicShowcase.host1.ipv4 typename "\"inet.networklayer.ipv4.Ipv4NetworkLayer\""
par RoutingTableVisualizationDynamicShowcase.host1.ipv4 forwarding true
par RoutingTableVisualizationDynamicShowcase.host1.ipv4 multicastForwarding false
par RoutingTableVisualizationDynamicShowcase.host1.ipv4 interfaceTableModule "\"RoutingTableVisualizationDynamicShowcase.host1.interfaceTable\""
par RoutingTableVisualizationDynamicShowcase.host1.ipv4 displayStringTextFormat "\"%i\""
par RoutingTableVisualizationDynamicShowcase.host1.nl typename "\"inet.common.MessageDispatcher\""
par RoutingTableVisualizationDynamicShowcase.host1.nl displayStringTextFormat "\"processed %p pk (%l)\""
par RoutingTableVisualizationDynamicShowcase.host1.nl forwardServiceRegistration true
par RoutingTableVisualizationDynamicShowcase.host1.nl forwardProtocolRegistration true
par RoutingTableVisualizationDynamicShowcase.host1.udp typename "\"inet.transportlayer.udp.Udp\""
par RoutingTableVisualizationDynamicShowcase.host1.udp interfaceTableModule "\"RoutingTableVisualizationDynamicShowcase.host1.interfaceTable\""
par RoutingTableVisualizationDynamicShowcase.host1.udp icmpModule "\"^.ipv4.icmp\""
par RoutingTableVisualizationDynamicShowcase.host1.udp icmpv6Module "\"^.ipv6.icmpv6\""
par RoutingTableVisualizationDynamicShowcase.host1.udp crcMode "\"declared\""
attr enum disabled,declared,computed
par RoutingTableVisualizationDynamicShowcase.host1.udp defaultMulticastLoop true
scalar RoutingTableVisualizationDynamicShowcase.host1.udp packetReceived:count 0
attr interpolationmode none
attr recordingmode count
attr source packetReceived
attr title "packets received, count"
scalar RoutingTableVisualizationDynamicShowcase.host1.udp packetReceived:sum(packetBytes) 0
attr interpolationmode none
attr recordingmode sum(packetBytes)
attr source packetReceived
attr title "packets received, sum(packetBytes)"
scalar RoutingTableVisualizationDynamicShowcase.host1.udp packetSent:count 0
attr interpolationmode none
attr recordingmode count
attr source packetSent
attr title "packets sent, count"
scalar RoutingTableVisualizationDynamicShowcase.host1.udp packetSent:sum(packetBytes) 0
attr interpolationmode none
attr recordingmode sum(packetBytes)
attr source packetSent
attr title "packets sent, sum(packetBytes)"
scalar RoutingTableVisualizationDynamicShowcase.host1.udp passedUpPk:count 0
attr interpolationmode none
attr recordingmode count
attr source packetSentToUpper
attr title "packets passed up, count"
scalar RoutingTableVisualizationDynamicShowcase.host1.udp droppedPkWrongPort:count 0
attr interpolationmode none
attr recordingmode count
attr source packetDropReasonIsNoPortFound(packetDropped)
attr title "packets dropped (wrong port), count"
scalar RoutingTableVisualizationDynamicShowcase.host1.udp droppedPkBadChecksum:count 0
attr interpolationmode none
attr recordingmode count
attr source packetDropReasonIsIncorrectlyReceived(packetDropped)
attr title "packets dropped (checksum error), count"
par RoutingTableVisualizationDynamicShowcase.host1.tcp typename "\"inet.transportlayer.tcp.Tcp\""
par RoutingTableVisualizationDynamicShowcase.host1.tcp crcMode "\"declared\""
attr enum declared,computed
par RoutingTableVisualizationDynamicShowcase.host1.tcp advertisedWindow 7504
par RoutingTableVisualizationDynamicShowcase.host1.tcp delayedAcksEnabled false
par RoutingTableVisualizationDynamicShowcase.host1.tcp nagleEnabled true
par RoutingTableVisualizationDynamicShowcase.host1.tcp limitedTransmitEnabled false
par RoutingTableVisualizationDynamicShowcase.host1.tcp increasedIWEnabled false
par RoutingTableVisualizationDynamicShowcase.host1.tcp sackSupport false
par RoutingTableVisualizationDynamicShowcase.host1.tcp windowScalingSupport false
par RoutingTableVisualizationDynamicShowcase.host1.tcp windowScalingFactor -1
par RoutingTableVisualizationDynamicShowcase.host1.tcp timestampSupport false
par RoutingTableVisualizationDynamicShowcase.host1.tcp mss 536
par RoutingTableVisualizationDynamicShowcase.host1.tcp msl 120s
attr unit s
par RoutingTableVisualizationDynamicShowcase.host1.tcp tcpAlgorithmClass "\"TcpReno\""
par RoutingTableVisualizationDynamicShowcase.host1.tcp useDataNotification false
par RoutingTableVisualizationDynamicShowcase.host1.tcp dupthresh 3
par RoutingTableVisualizationDynamicShowcase.host1.tcp initialSsthresh 4294967295
par RoutingTableVisualizationDynamicShowcase.host1.tcp stopOperationExtraTime 0s
attr unit s
par RoutingTableVisualizationDynamicShowcase.host1.tcp stopOperationTimeout 2s
attr unit s
par RoutingTableVisualizationDynamicShowcase.host1.tcp ecnWillingness false
par RoutingTableVisualizationDynamicShowcase.host1.tcp dctcpGamma 0.0625
par RoutingTableVisualizationDynamicShowcase.host1.tn typename "\"inet.common.MessageDispatcher\""
par RoutingTableVisualizationDynamicShowcase.host1.tn displayStringTextFormat "\"processed %p pk (%l)\""
par RoutingTableVisualizationDynamicShowcase.host1.tn forwardServiceRegistration true
par RoutingTableVisualizationDynamicShowcase.host1.tn forwardProtocolRegistration true
par RoutingTableVisualizationDynamicShowcase.host1.at typename "\"inet.common.MessageDispatcher\""
par RoutingTableVisualizationDynamicShowcase.host1.at displayStringTextFormat "\"processed %p pk (%l)\""
par RoutingTableVisualizationDynamicShowcase.host1.at forwardServiceRegistration true
par RoutingTableVisualizationDynamicShowcase.host1.at forwardProtocolRegistration true
par RoutingTableVisualizationDynamicShowcase.host1.aodv typename "\"inet.routing.aodv.Aodv\""
par RoutingTableVisualizationDynamicShowcase.host1.aodv routingTableModule "\"^.ipv4.routingTable\""
par RoutingTableVisualizationDynamicShowcase.host1.aodv interfaceTableModule "\"RoutingTableVisualizationDynamicShowcase.host1.interfaceTable\""
par RoutingTableVisualizationDynamicShowcase.host1.aodv networkProtocolModule "\"^.ipv4.ip\""
par RoutingTableVisualizationDynamicShowcase.host1.aodv askGratuitousRREP false
par RoutingTableVisualizationDynamicShowcase.host1.aodv useHelloMessages false
par RoutingTableVisualizationDynamicShowcase.host1.aodv useLocalRepair false
par RoutingTableVisualizationDynamicShowcase.host1.aodv destinationOnlyFlag false
par RoutingTableVisualizationDynamicShowcase.host1.aodv udpPort 654
par RoutingTableVisualizationDynamicShowcase.host1.aodv interface "\"wlan0\""
par RoutingTableVisualizationDynamicShowcase.host1.aodv maxPeriodicJitter 0.25s
attr unit s
par RoutingTableVisualizationDynamicShowcase.host1.aodv periodicJitter "uniform(0s, maxPeriodicJitter)"
attr unit s
par RoutingTableVisualizationDynamicShowcase.host1.aodv maxJitter 0.005s
attr unit s
par RoutingTableVisualizationDynamicShowcase.host1.aodv jitter "uniform(0ms, maxJitter)"
attr unit s
par RoutingTableVisualizationDynamicShowcase.host1.aodv helloInterval 1s
attr unit s
par RoutingTableVisualizationDynamicShowcase.host1.aodv allowedHelloLoss 2
par RoutingTableVisualizationDynamicShowcase.host1.aodv activeRouteTimeout 3s
attr unit s
par RoutingTableVisualizationDynamicShowcase.host1.aodv netDiameter 35
par RoutingTableVisualizationDynamicShowcase.host1.aodv nodeTraversalTime 0.04s
attr unit s
par RoutingTableVisualizationDynamicShowcase.host1.aodv rerrRatelimit 10
par RoutingTableVisualizationDynamicShowcase.host1.aodv rreqRetries 2
par RoutingTableVisualizationDynamicShowcase.host1.aodv rreqRatelimit 10
par RoutingTableVisualizationDynamicShowcase.host1.aodv timeoutBuffer 2
par RoutingTableVisualizationDynamicShowcase.host1.aodv ttlStart 2
par RoutingTableVisualizationDynamicShowcase.host1.aodv ttlIncrement 2
par RoutingTableVisualizationDynamicShowcase.host1.aodv ttlThreshold 7
par RoutingTableVisualizationDynamicShowcase.host1.aodv localAddTTL 2
par RoutingTableVisualizationDynamicShowcase.host1.aodv myRouteTimeout 6s
attr unit s
par RoutingTableVisualizationDynamicShowcase.host1.aodv deletePeriod 15s
attr unit s
par RoutingTableVisualizationDynamicShowcase.host1.aodv blacklistTimeout 5.6s
attr unit s
par RoutingTableVisualizationDynamicShowcase.host1.aodv netTraversalTime 2.8s
attr unit s
par RoutingTableVisualizationDynamicShowcase.host1.aodv nextHopWait 0.05s
attr unit s
par RoutingTableVisualizationDynamicShowcase.host1.aodv pathDiscoveryTime 5.6s
attr unit s
par RoutingTableVisualizationDynamicShowcase.host1 typename "\"inet.node.aodv.AodvRouter\""
par RoutingTableVisualizationDynamicShowcase.host1 hasStatus false
par RoutingTableVisualizationDynamicShowcase.host1 osgModel "\"\""
par RoutingTableVisualizationDynamicShowcase.host1 osgModelColor "\"\""
par RoutingTableVisualizationDynamicShowcase.host1 canvasImage "\"\""
par RoutingTableVisualizationDynamicShowcase.host1 canvasImageColor "\"\""
par RoutingTableVisualizationDynamicShowcase.host1 recordPcap false
par RoutingTableVisualizationDynamicShowcase.host1 numPcapRecorders 0
par RoutingTableVisualizationDynamicShowcase.host1 numLoInterfaces 1
par RoutingTableVisualizationDynamicShowcase.host1 numWlanInterfaces 1
par RoutingTableVisualizationDynamicShowcase.host1 numEthInterfaces 0
par RoutingTableVisualizationDynamicShowcase.host1 numPppInterfaces 0
par RoutingTableVisualizationDynamicShowcase.host1 numTunInterfaces 0
par RoutingTableVisualizationDynamicShowcase.host1 numVirtInterfaces 0
par RoutingTableVisualizationDynamicShowcase.host1 fcsMode "\"declared\""
attr enum declared,computed
par RoutingTableVisualizationDynamicShowcase.host1 hasIpv4 true
par RoutingTableVisualizationDynamicShowcase.host1 hasIpv6 false
par RoutingTableVisualizationDynamicShowcase.host1 hasGn false
par RoutingTableVisualizationDynamicShowcase.host1 forwarding true
par RoutingTableVisualizationDynamicShowcase.host1 multicastForwarding false
par RoutingTableVisualizationDynamicShowcase.host1 hasUdp true
par RoutingTableVisualizationDynamicShowcase.host1 hasTcp true
par RoutingTableVisualizationDynamicShowcase.host1 hasSctp false
par RoutingTableVisualizationDynamicShowcase.host1 numApps 0
par RoutingTableVisualizationDynamicShowcase.host2.radioIn[0].channel typename "\"ned.IdealChannel\""
par RoutingTableVisualizationDynamicShowcase.host2.mobility typename "\"inet.mobility.static.StationaryMobility\""
par RoutingTableVisualizationDynamicShowcase.host2.mobility subjectModule "\"^\""
par RoutingTableVisualizationDynamicShowcase.host2.mobility coordinateSystemModule "\"\""
par RoutingTableVisualizationDynamicShowcase.host2.mobility displayStringTextFormat "\"p: %p\\nv: %v\""
attr mutable ""
par RoutingTableVisualizationDynamicShowcase.host2.mobility updateDisplayString true
par RoutingTableVisualizationDynamicShowcase.host2.mobility constraintAreaMinX "-inf m"
attr unit m
par RoutingTableVisualizationDynamicShowcase.host2.mobility constraintAreaMinY 0m
attr unit m
par RoutingTableVisualizationDynamicShowcase.host2.mobility constraintAreaMinZ "-inf m"
attr unit m
par RoutingTableVisualizationDynamicShowcase.host2.mobility constraintAreaMaxX "inf m"
attr unit m
par RoutingTableVisualizationDynamicShowcase.host2.mobility constraintAreaMaxY 600m
attr unit m
par RoutingTableVisualizationDynamicShowcase.host2.mobility constraintAreaMaxZ "inf m"
attr unit m
par RoutingTableVisualizationDynamicShowcase.host2.mobility initialX "nan m"
attr unit m
par RoutingTableVisualizationDynamicShowcase.host2.mobility initialY 361.658m
attr unit m
par RoutingTableVisualizationDynamicShowcase.host2.mobility initialZ 0m
attr unit m
par RoutingTableVisualizationDynamicShowcase.host2.mobility initialLatitude "nan deg"
attr unit deg
par RoutingTableVisualizationDynamicShowcase.host2.mobility initialLongitude "nan deg"
attr unit deg
par RoutingTableVisualizationDynamicShowcase.host2.mobility initialAltitude 0m
attr unit m
par RoutingTableVisualizationDynamicShowcase.host2.mobility initialHeading 0deg
attr unit deg
par RoutingTableVisualizationDynamicShowcase.host2.mobility initialElevation 0deg
attr unit deg
par RoutingTableVisualizationDynamicShowcase.host2.mobility initialBank 0deg
attr unit deg
par RoutingTableVisualizationDynamicShowcase.host2.mobility initFromDisplayString true
par RoutingTableVisualizationDynamicShowcase.host2.mobility updateFromDisplayString true
par RoutingTableVisualizationDynamicShowcase.host2.interfaceTable typename "\"inet.networklayer.common.InterfaceTable\""
par RoutingTableVisualizationDynamicShowcase.host2.interfaceTable displayAddresses false
par RoutingTableVisualizationDynamicShowcase.host2.cb typename "\"inet.common.MessageDispatcher\""
par RoutingTableVisualizationDynamicShowcase.host2.cb displayStringTextFormat "\"processed %p pk (%l)\""
par RoutingTableVisualizationDynamicShowcase.host2.cb forwardServiceRegistration true
par RoutingTableVisualizationDynamicShowcase.host2.cb forwardProtocolRegistration true
par RoutingTableVisualizationDynamicShowcase.host2.bl typename "\"inet.common.MessageDispatcher\""
par RoutingTableVisualizationDynamicShowcase.host2.bl displayStringTextFormat "\"processed %p pk (%l)\""
par RoutingTableVisualizationDynamicShowcase.host2.bl forwardServiceRegistration true
par RoutingTableVisualizationDynamicShowcase.host2.bl forwardProtocolRegistration true
par RoutingTableVisualizationDynamicShowcase.host2.li typename "\"inet.common.MessageDispatcher\""
par RoutingTableVisualizationDynamicShowcase.host2.li displayStringTextFormat "\"processed %p pk (%l)\""
par RoutingTableVisualizationDynamicShowcase.host2.li forwardServiceRegistration true
par RoutingTableVisualizationDynamicShowcase.host2.li forwardProtocolRegistration true
par RoutingTableVisualizationDynamicShowcase.host2.lo[0].upperLayerIn.channel typename "\"ned.IdealChannel\""
par RoutingTableVisualizationDynamicShowcase.host2.lo[0].lo.upperLayerOut.channel typename "\"ned.IdealChannel\""
par RoutingTableVisualizationDynamicShowcase.host2.lo[0].lo typename "\"inet.linklayer.loopback.Loopback\""
par RoutingTableVisualizationDynamicShowcase.host2.lo[0].lo interfaceTableModule "\"RoutingTableVisualizationDynamicShowcase.host2.interfaceTable\""
par RoutingTableVisualizationDynamicShowcase.host2.lo[0].lo mtu 4470B
attr unit B
scalar RoutingTableVisualizationDynamicShowcase.host2.lo[0].lo rcvdPkFromHl:count 0
attr interpolationmode none
attr recordingmode count
attr source packetReceivedFromUpper
attr title "packets received from higher layer, count"
[...]
par RoutingTableVisualizationDynamicShowcase.visualizer.canvasVisualizer.networkRouteVisualizer lineWidth 3
par RoutingTableVisualizationDynamicShowcase.visualizer.canvasVisualizer.networkRouteVisualizer lineSmooth false
par RoutingTableVisualizationDynamicShowcase.visualizer.canvasVisualizer.networkRouteVisualizer lineShift 16
par RoutingTableVisualizationDynamicShowcase.visualizer.canvasVisualizer.networkRouteVisualizer lineShiftMode "\"normal\""
par RoutingTableVisualizationDynamicShowcase.visualizer.canvasVisualizer.networkRouteVisualizer lineContactSpacing 3
par RoutingTableVisualizationDynamicShowcase.visualizer.canvasVisualizer.networkRouteVisualizer lineContactMode "\"rectangular\""
attr enum circular,rectangular
par RoutingTableVisualizationDynamicShowcase.visualizer.canvasVisualizer.networkRouteVisualizer labelFormat "\"%n\""
par RoutingTableVisualizationDynamicShowcase.visualizer.canvasVisualizer.networkRouteVisualizer labelFont "\"<default>, 8px\""
par RoutingTableVisualizationDynamicShowcase.visualizer.canvasVisualizer.networkRouteVisualizer labelColor "\"\""
par RoutingTableVisualizationDynamicShowcase.visualizer.canvasVisualizer.networkRouteVisualizer fadeOutMode "\"realTime\""
attr enum realTime,animationTime,simulationTime
par RoutingTableVisualizationDynamicShowcase.visualizer.canvasVisualizer.networkRouteVisualizer fadeOutTime 1s
attr unit s
par RoutingTableVisualizationDynamicShowcase.visualizer.canvasVisualizer.networkRouteVisualizer fadeOutAnimationSpeed 0
par RoutingTableVisualizationDynamicShowcase.visualizer.canvasVisualizer.networkRouteVisualizer zIndex 3
par RoutingTableVisualizationDynamicShowcase.visualizer.canvasVisualizer.routingTableVisualizer typename "\"inet.visualizer.canvas.networklayer.RoutingTableCanvasVisualizer\""
par RoutingTableVisualizationDynamicShowcase.visualizer.canvasVisualizer.routingTableVisualizer visualizationTargetModule "\"^.^.^\""
par RoutingTableVisualizationDynamicShowcase.visualizer.canvasVisualizer.routingTableVisualizer visualizationSubjectModule "\"^.^.^\""
par RoutingTableVisualizationDynamicShowcase.visualizer.canvasVisualizer.routingTableVisualizer tags "\"\""
par RoutingTableVisualizationDynamicShowcase.visualizer.canvasVisualizer.routingTableVisualizer displayRoutingTables true
par RoutingTableVisualizationDynamicShowcase.visualizer.canvasVisualizer.routingTableVisualizer displayRoutesIndividually true
par RoutingTableVisualizationDynamicShowcase.visualizer.canvasVisualizer.routingTableVisualizer displayLabels true
par RoutingTableVisualizationDynamicShowcase.visualizer.canvasVisualizer.routingTableVisualizer destinationFilter "\"destinationHost\""
attr mutable ""
par RoutingTableVisualizationDynamicShowcase.visualizer.canvasVisualizer.routingTableVisualizer nodeFilter "\"*\""
attr mutable ""
par RoutingTableVisualizationDynamicShowcase.visualizer.canvasVisualizer.routingTableVisualizer lineColor "\"black\""
par RoutingTableVisualizationDynamicShowcase.visualizer.canvasVisualizer.routingTableVisualizer lineStyle "\"solid\""
par RoutingTableVisualizationDynamicShowcase.visualizer.canvasVisualizer.routingTableVisualizer lineWidth 2
par RoutingTableVisualizationDynamicShowcase.visualizer.canvasVisualizer.routingTableVisualizer lineShift 16
par RoutingTableVisualizationDynamicShowcase.visualizer.canvasVisualizer.routingTableVisualizer lineShiftMode "\"normal\""
par RoutingTableVisualizationDynamicShowcase.visualizer.canvasVisualizer.routingTableVisualizer lineContactSpacing 3
par RoutingTableVisualizationDynamicShowcase.visualizer.canvasVisualizer.routingTableVisualizer lineContactMode "\"rectangular\""
attr enum circular,rectangular
par RoutingTableVisualizationDynamicShowcase.visualizer.canvasVisualizer.routingTableVisualizer labelFormat "\"%d/%m -> %g (%n)\""
attr mutable ""
par RoutingTableVisualizationDynamicShowcase.visualizer.canvasVisualizer.routingTableVisualizer labelFont "\"<default>, 8px\""
par RoutingTableVisualizationDynamicShowcase.visualizer.canvasVisualizer.routingTableVisualizer labelColor "\"black\""
par RoutingTableVisualizationDynamicShowcase.visualizer.canvasVisualizer.routingTableVisualizer zIndex 0
par RoutingTableVisualizationDynamicShowcase.visualizer.canvasVisualizer.transportRouteVisualizer typename "\"inet.visualizer.canvas.transportlayer.TransportRouteCanvasVisualizer\""
par RoutingTableVisualizationDynamicShowcase.visualizer.canvasVisualizer.transportRouteVisualizer visualizationTargetModule "\"^.^.^\""
par RoutingTableVisualizationDynamicShowcase.visualizer.canvasVisualizer.transportRouteVisualizer visualizationSubjectModule "\"^.^.^\""
par RoutingTableVisualizationDynamicShowcase.visualizer.canvasVisualizer.transportRouteVisualizer tags "\"\""
par RoutingTableVisualizationDynamicShowcase.visualizer.canvasVisualizer.transportRouteVisualizer displayRoutes false
par RoutingTableVisualizationDynamicShowcase.visualizer.canvasVisualizer.transportRouteVisualizer startPathSignal "\"packetReceivedFromUpper\""
par RoutingTableVisualizationDynamicShowcase.visualizer.canvasVisualizer.transportRouteVisualizer extendPathSignal "\"packetReceivedFromLower\""
par RoutingTableVisualizationDynamicShowcase.visualizer.canvasVisualizer.transportRouteVisualizer endPathSignal "\"packetSentToUpper\""
par RoutingTableVisualizationDynamicShowcase.visualizer.canvasVisualizer.transportRouteVisualizer nodeFilter "\"*\""
attr mutable ""
par RoutingTableVisualizationDynamicShowcase.visualizer.canvasVisualizer.transportRouteVisualizer packetFilter "(omnetpp::cValueHolder)holder: \"*\""
attr mutable ""
par RoutingTableVisualizationDynamicShowcase.visualizer.canvasVisualizer.transportRouteVisualizer lineColor "\"dark\""
par RoutingTableVisualizationDynamicShowcase.visualizer.canvasVisualizer.transportRouteVisualizer lineStyle "\"solid\""
par RoutingTableVisualizationDynamicShowcase.visualizer.canvasVisualizer.transportRouteVisualizer lineWidth 3
par RoutingTableVisualizationDynamicShowcase.visualizer.canvasVisualizer.transportRouteVisualizer lineSmooth false
par RoutingTableVisualizationDynamicShowcase.visualizer.canvasVisualizer.transportRouteVisualizer lineShift 16
par RoutingTableVisualizationDynamicShowcase.visualizer.canvasVisualizer.transportRouteVisualizer lineShiftMode "\"normal\""
par RoutingTableVisualizationDynamicShowcase.visualizer.canvasVisualizer.transportRouteVisualizer lineContactSpacing 3
par RoutingTableVisualizationDynamicShowcase.visualizer.canvasVisualizer.transportRouteVisualizer lineContactMode "\"rectangular\""
attr enum circular,rectangular
par RoutingTableVisualizationDynamicShowcase.visualizer.canvasVisualizer.transportRouteVisualizer labelFormat "\"%n\""
par RoutingTableVisualizationDynamicShowcase.visualizer.canvasVisualizer.transportRouteVisualizer labelFont "\"<default>, 8px\""
par RoutingTableVisualizationDynamicShowcase.visualizer.canvasVisualizer.transportRouteVisualizer labelColor "\"\""
par RoutingTableVisualizationDynamicShowcase.visualizer.canvasVisualizer.transportRouteVisualizer fadeOutMode "\"realTime\""
attr enum realTime,animationTime,simulationTime
par RoutingTableVisualizationDynamicShowcase.visualizer.canvasVisualizer.transportRouteVisualizer fadeOutTime 1s
attr unit s
par RoutingTableVisualizationDynamicShowcase.visualizer.canvasVisualizer.transportRouteVisualizer fadeOutAnimationSpeed 0
par RoutingTableVisualizationDynamicShowcase.visualizer.canvasVisualizer.transportRouteVisualizer zIndex 4
par RoutingTableVisualizationDynamicShowcase.visualizer.canvasVisualizer.transportConnectionVisualizer typename "\"inet.visualizer.canvas.transportlayer.TransportConnectionCanvasVisualizer\""
par RoutingTableVisualizationDynamicShowcase.visualizer.canvasVisualizer.transportConnectionVisualizer visualizationTargetModule "\"^.^.^\""
par RoutingTableVisualizationDynamicShowcase.visualizer.canvasVisualizer.transportConnectionVisualizer visualizationSubjectModule "\"^.^.^\""
par RoutingTableVisualizationDynamicShowcase.visualizer.canvasVisualizer.transportConnectionVisualizer tags "\"\""
par RoutingTableVisualizationDynamicShowcase.visualizer.canvasVisualizer.transportConnectionVisualizer networkNodeVisualizerModule "\"^.networkNodeVisualizer\""
par RoutingTableVisualizationDynamicShowcase.visualizer.canvasVisualizer.transportConnectionVisualizer displayTransportConnections false
par RoutingTableVisualizationDynamicShowcase.visualizer.canvasVisualizer.transportConnectionVisualizer sourceNodeFilter "\"*\""
attr mutable ""
par RoutingTableVisualizationDynamicShowcase.visualizer.canvasVisualizer.transportConnectionVisualizer sourcePortFilter "\"*\""
attr mutable ""
par RoutingTableVisualizationDynamicShowcase.visualizer.canvasVisualizer.transportConnectionVisualizer destinationNodeFilter "\"*\""
attr mutable ""
par RoutingTableVisualizationDynamicShowcase.visualizer.canvasVisualizer.transportConnectionVisualizer destinationPortFilter "\"*\""
attr mutable ""
par RoutingTableVisualizationDynamicShowcase.visualizer.canvasVisualizer.transportConnectionVisualizer icon "\"misc/marker_s\""
par RoutingTableVisualizationDynamicShowcase.visualizer.canvasVisualizer.transportConnectionVisualizer iconColor "\"dark\""
par RoutingTableVisualizationDynamicShowcase.visualizer.canvasVisualizer.transportConnectionVisualizer labelFont "\"<default>\""
par RoutingTableVisualizationDynamicShowcase.visualizer.canvasVisualizer.transportConnectionVisualizer labelColor "\"black\""
par RoutingTableVisualizationDynamicShowcase.visualizer.canvasVisualizer.transportConnectionVisualizer placementHint "\"top\""
par RoutingTableVisualizationDynamicShowcase.visualizer.canvasVisualizer.transportConnectionVisualizer placementPriority 0
par RoutingTableVisualizationDynamicShowcase.visualizer.canvasVisualizer.transportConnectionVisualizer zIndex 4
par RoutingTableVisualizationDynamicShowcase.visualizer.canvasVisualizer.failureProtectionConfigurationVisualizer typename "\"inet.visualizer.canvas.configurator.FailureProtectionConfigurationCanvasVisualizer\""
par RoutingTableVisualizationDynamicShowcase.visualizer.canvasVisualizer.failureProtectionConfigurationVisualizer visualizationTargetModule "\"^.^.^\""
par RoutingTableVisualizationDynamicShowcase.visualizer.canvasVisualizer.failureProtectionConfigurationVisualizer visualizationSubjectModule "\"^.^.^\""
par RoutingTableVisualizationDynamicShowcase.visualizer.canvasVisualizer.failureProtectionConfigurationVisualizer tags "\"\""
par RoutingTableVisualizationDynamicShowcase.visualizer.canvasVisualizer.failureProtectionConfigurationVisualizer displayTrees false
par RoutingTableVisualizationDynamicShowcase.visualizer.canvasVisualizer.failureProtectionConfigurationVisualizer lineColor "\"dark\""
par RoutingTableVisualizationDynamicShowcase.visualizer.canvasVisualizer.failureProtectionConfigurationVisualizer lineStyle "\"solid\""
par RoutingTableVisualizationDynamicShowcase.visualizer.canvasVisualizer.failureProtectionConfigurationVisualizer lineWidth 3
par RoutingTableVisualizationDynamicShowcase.visualizer.canvasVisualizer.failureProtectionConfigurationVisualizer lineSmooth false
par RoutingTableVisualizationDynamicShowcase.visualizer.canvasVisualizer.failureProtectionConfigurationVisualizer lineShift 16
par RoutingTableVisualizationDynamicShowcase.visualizer.canvasVisualizer.failureProtectionConfigurationVisualizer lineShiftMode "\"normal\""
par RoutingTableVisualizationDynamicShowcase.visualizer.canvasVisualizer.failureProtectionConfigurationVisualizer lineContactSpacing 3
par RoutingTableVisualizationDynamicShowcase.visualizer.canvasVisualizer.failureProtectionConfigurationVisualizer lineContactMode "\"rectangular\""
attr enum circular,rectangular
par RoutingTableVisualizationDynamicShowcase.visualizer.canvasVisualizer.failureProtectionConfigurationVisualizer failureProtectionConfiguratorModule "\"failureProtectionConfigurator\""
par RoutingTableVisualizationDynamicShowcase.visualizer.canvasVisualizer.failureProtectionConfigurationVisualizer streamFilter "\"*\""
par RoutingTableVisualizationDynamicShowcase.visualizer.canvasVisualizer.failureProtectionConfigurationVisualizer zIndex 3
par RoutingTableVisualizationDynamicShowcase.visualizer.canvasVisualizer.streamRedundancyConfigurationVisualizer typename "\"inet.visualizer.canvas.configurator.StreamRedundancyConfigurationCanvasVisualizer\""
par RoutingTableVisualizationDynamicShowcase.visualizer.canvasVisualizer.streamRedundancyConfigurationVisualizer visualizationTargetModule "\"^.^.^\""
par RoutingTableVisualizationDynamicShowcase.visualizer.canvasVisualizer.streamRedundancyConfigurationVisualizer visualizationSubjectModule "\"^.^.^\""
par RoutingTableVisualizationDynamicShowcase.visualizer.canvasVisualizer.streamRedundancyConfigurationVisualizer tags "\"\""
par RoutingTableVisualizationDynamicShowcase.visualizer.canvasVisualizer.streamRedundancyConfigurationVisualizer displayTrees false
par RoutingTableVisualizationDynamicShowcase.visualizer.canvasVisualizer.streamRedundancyConfigurationVisualizer lineColor "\"dark\""
par RoutingTableVisualizationDynamicShowcase.visualizer.canvasVisualizer.streamRedundancyConfigurationVisualizer lineStyle "\"solid\""
par RoutingTableVisualizationDynamicShowcase.visualizer.canvasVisualizer.streamRedundancyConfigurationVisualizer lineWidth 3
par RoutingTableVisualizationDynamicShowcase.visualizer.canvasVisualizer.streamRedundancyConfigurationVisualizer lineSmooth false
par RoutingTableVisualizationDynamicShowcase.visualizer.canvasVisualizer.streamRedundancyConfigurationVisualizer lineShift 16
par RoutingTableVisualizationDynamicShowcase.visualizer.canvasVisualizer.streamRedundancyConfigurationVisualizer lineShiftMode "\"normal\""
par RoutingTableVisualizationDynamicShowcase.visualizer.canvasVisualizer.streamRedundancyConfigurationVisualizer lineContactSpacing 3
par RoutingTableVisualizationDynamicShowcase.visualizer.canvasVisualizer.streamRedundancyConfigurationVisualizer lineContactMode "\"rectangular\""
attr enum circular,rectangular
par RoutingTableVisualizationDynamicShowcase.visualizer.canvasVisualizer.streamRedundancyConfigurationVisualizer streamRedundancyConfiguratorModule "\"streamRedundancyConfigurator\""
par RoutingTableVisualizationDynamicShowcase.visualizer.canvasVisualizer.streamRedundancyConfigurationVisualizer streamFilter "\"*\""
par RoutingTableVisualizationDynamicShowcase.visualizer.canvasVisualizer.streamRedundancyConfigurationVisualizer zIndex 3
par RoutingTableVisualizationDynamicShowcase.visualizer.canvasVisualizer typename "\"inet.visualizer.canvas.integrated.IntegratedCanvasVisualizer\""
par RoutingTableVisualizationDynamicShowcase.visualizer typename "\"inet.visualizer.common.IntegratedVisualizer\""
par RoutingTableVisualizationDynamicShowcase.radioMedium.propagation typename "\"inet.physicallayer.wireless.common.propagation.ConstantSpeedPropagation\""
par RoutingTableVisualizationDynamicShowcase.radioMedium.propagation propagationSpeed 2.99792e+08mps
attr unit mps
par RoutingTableVisualizationDynamicShowcase.radioMedium.propagation ignoreMovementDuringTransmission true
par RoutingTableVisualizationDynamicShowcase.radioMedium.propagation ignoreMovementDuringPropagation true
par RoutingTableVisualizationDynamicShowcase.radioMedium.propagation ignoreMovementDuringReception true
scalar RoutingTableVisualizationDynamicShowcase.radioMedium.propagation "Arrival computation count" 0
par RoutingTableVisualizationDynamicShowcase.radioMedium.analogModel typename "\"inet.physicallayer.wireless.common.analogmodel.packetlevel.ScalarAnalogModel\""
par RoutingTableVisualizationDynamicShowcase.radioMedium.analogModel ignorePartialInterference false
par RoutingTableVisualizationDynamicShowcase.radioMedium.backgroundNoise typename "\"inet.physicallayer.wireless.common.backgroundnoise.IsotropicScalarBackgroundNoise\""
par RoutingTableVisualizationDynamicShowcase.radioMedium.backgroundNoise power -110dBm
attr unit dBm
par RoutingTableVisualizationDynamicShowcase.radioMedium.backgroundNoise bandwidth "nan Hz"
attr unit Hz
par RoutingTableVisualizationDynamicShowcase.radioMedium.pathLoss typename "\"inet.physicallayer.wireless.common.pathloss.FreeSpacePathLoss\""
par RoutingTableVisualizationDynamicShowcase.radioMedium.pathLoss alpha 2
par RoutingTableVisualizationDynamicShowcase.radioMedium.pathLoss systemLoss 0dB
attr unit dB
par RoutingTableVisualizationDynamicShowcase.radioMedium.mediumLimitCache typename "\"inet.physicallayer.wireless.common.medium.MediumLimitCache\""
par RoutingTableVisualizationDynamicShowcase.radioMedium.mediumLimitCache centerFrequency 2.4e+09Hz
attr unit Hz
par RoutingTableVisualizationDynamicShowcase.radioMedium.mediumLimitCache maxSpeed "nan mps"
attr unit mps
par RoutingTableVisualizationDynamicShowcase.radioMedium.mediumLimitCache maxTransmissionPower "nan W"
attr unit W
par RoutingTableVisualizationDynamicShowcase.radioMedium.mediumLimitCache minInterferencePower -110dBm
attr unit dBm
par RoutingTableVisualizationDynamicShowcase.radioMedium.mediumLimitCache minReceptionPower -85dBm
attr unit dBm
par RoutingTableVisualizationDynamicShowcase.radioMedium.mediumLimitCache maxAntennaGain 0dB
attr unit dB
par RoutingTableVisualizationDynamicShowcase.radioMedium.mediumLimitCache minInterferenceTime 1e-12s
attr unit s
par RoutingTableVisualizationDynamicShowcase.radioMedium.mediumLimitCache maxTransmissionDuration 0.01s
attr unit s
par RoutingTableVisualizationDynamicShowcase.radioMedium.mediumLimitCache maxCommunicationRange "nan m"
attr unit m
par RoutingTableVisualizationDynamicShowcase.radioMedium.mediumLimitCache maxInterferenceRange "nan m"
attr unit m
par RoutingTableVisualizationDynamicShowcase.radioMedium.communicationCache typename "\"inet.physicallayer.wireless.common.communicationcache.VectorCommunicationCache\""
par RoutingTableVisualizationDynamicShowcase.radioMedium typename "\"inet.physicallayer.wireless.ieee80211.packetlevel.Ieee80211ScalarRadioMedium\""
par RoutingTableVisualizationDynamicShowcase.radioMedium physicalEnvironmentModule "\"physicalEnvironment\""
par RoutingTableVisualizationDynamicShowcase.radioMedium signalAnalogRepresentation "\"scalar\""
attr enum unitDisk,scalar,dimensional
par RoutingTableVisualizationDynamicShowcase.radioMedium rangeFilter "\"\""
par RoutingTableVisualizationDynamicShowcase.radioMedium radioModeFilter false
par RoutingTableVisualizationDynamicShowcase.radioMedium listeningFilter false
par RoutingTableVisualizationDynamicShowcase.radioMedium macAddressFilter false
par RoutingTableVisualizationDynamicShowcase.radioMedium recordTransmissionLog false
par RoutingTableVisualizationDynamicShowcase.radioMedium recordReceptionLog false
scalar RoutingTableVisualizationDynamicShowcase.radioMedium "transmission count" 0
scalar RoutingTableVisualizationDynamicShowcase.radioMedium "signal send count" 0
scalar RoutingTableVisualizationDynamicShowcase.radioMedium "reception computation count" 0
scalar RoutingTableVisualizationDynamicShowcase.radioMedium "interference computation count" 10
scalar RoutingTableVisualizationDynamicShowcase.radioMedium "reception decision computation count" 0
scalar RoutingTableVisualizationDynamicShowcase.radioMedium "listening decision computation count" 10
scalar RoutingTableVisualizationDynamicShowcase.radioMedium "reception cache hit" nan
attr unit %
scalar RoutingTableVisualizationDynamicShowcase.radioMedium "interference cache hit" nan
attr unit %
scalar RoutingTableVisualizationDynamicShowcase.radioMedium "noise cache hit" nan
attr unit %
scalar RoutingTableVisualizationDynamicShowcase.radioMedium "snir cache hit" nan
attr unit %
scalar RoutingTableVisualizationDynamicShowcase.radioMedium "reception decision cache hit" nan
attr unit %
scalar RoutingTableVisualizationDynamicShowcase.radioMedium "reception result cache hit" nan
attr unit %
par RoutingTableVisualizationDynamicShowcase typename "\"adhoc_simulation_t4.simulations.RoutingTableVisualizationDynamicShowcase\""

